   30
jmolscript: load "" {1 1 1} spacegroup "x,y,z" unitcell [{      2.952700     0.000000     0.000000 }, {      0.000000     6.326000     0.000000 }, {      0.000000     0.000000     0.000000 }]
Mn    -0.000000     0.000051    13.786720     1.466482
Mn     0.000000     3.163822    16.886600     1.570932
Mn    -0.000000     0.001525    20.072480     1.573710
Mn    -0.000000     3.163727    23.256160     1.573166
Mn     0.000000     0.002847    26.359360     1.457526
Mn     1.476350     3.163108    13.685000     1.478051
Mn     1.476350     0.000784    16.938520     1.560900
Mn     1.476350     3.164575    20.071320     1.569466
Mn     1.476350     0.000588    23.206160     1.568371
Mn     1.476350     3.165562    26.460120     1.481245
O     -0.000000     3.163164    12.502480    -0.516463
O      0.000000     0.000361    15.692560    -0.805779
O     -0.000000     3.163620    18.836800    -0.784607
O      0.000000     0.000746    21.996160    -0.793858
O     -0.000000     3.163936    25.197520    -0.810839
O     -0.000000     3.166473    27.644000    -0.516010
O     -0.000000     3.163829    14.946400    -0.807368
O      0.000000     0.001411    18.147560    -0.790715
O      0.000000     3.166144    21.305120    -0.786961
O      0.000000     0.002075    24.452200    -0.809204
O      1.476350     1.211271    13.490920    -0.784638
O      1.476350     4.393559    16.882760    -0.790936
O      1.476350     1.229901    20.070480    -0.790331
O      1.476350     4.393274    23.258520    -0.792472
O      1.476350     1.214712    26.655200    -0.781403
O      1.476350     5.114887    13.490960    -0.784682
O      1.476350     1.934010    16.881920    -0.790772
O      1.476350     5.099275    20.069840    -0.789683
O      1.476350     1.934118    23.255920    -0.791643
O      1.476350     5.116861    26.655080    -0.781489
 
 Chargemol version 3.5 September 26, 2017.
See ddec.sourceforge.net for latest version.
 
Computational parameters:
Number of radial integration shells =    100
Cutoff radius (pm) =    500
Error in the integrated total number of electrons before renormalization (e) =    4.6274E-04
Charge convergence tolerance =    1.0000E-05
Minimum radius for electron cloud penetration fitting (pm) =    200
Minimum decay exponent for electron density of buried atom tails =   1.7500
Maximum decay exponent for electron density of buried atom tails =  2.5000
Number of iterations to convergence =      7
 
The following XYZ coordinates are in angstroms. The atomic dipoles and quadrupoles are in atomic units.
atom number, atomic symbol, x, y, z, net_charge, dipole_x, dipole_y, dipole_z, dipole_mag, Qxy, Qxz, Qyz,Q(x^2-y^2), Q(3z^2 - R^2), three eigenvalues of traceless quadrupole moment tensor
    1 Mn    -0.000000     0.000051    13.786720     1.466482     0.000000     0.000020    -0.044845     0.044845    -0.000000     0.000000    -0.000203    -0.032344     0.245835    -0.057145    -0.024801     0.081945
    2 Mn     0.000000     3.163822    16.886600     1.570932    -0.000000    -0.000001    -0.002068     0.002068     0.000000    -0.000000     0.000445    -0.035797     0.026871    -0.022377     0.008913     0.013464
    3 Mn    -0.000000     0.001525    20.072480     1.573710     0.000000     0.000183    -0.000744     0.000766    -0.000000    -0.000000     0.000480    -0.038244     0.034654    -0.024898     0.011431     0.013467
    4 Mn    -0.000000     3.163727    23.256160     1.573166     0.000000     0.000999     0.001806     0.002064     0.000000     0.000000    -0.000107    -0.038862     0.026618    -0.023868     0.008871     0.014997
    5 Mn     0.000000     0.002847    26.359360     1.457526    -0.000000    -0.000165     0.044596     0.044597     0.000000     0.000000     0.000026    -0.034419     0.251781    -0.059173    -0.024754     0.083927
    6 Mn     1.476350     3.163108    13.685000     1.478051     0.000000     0.000073     0.003940     0.003941     0.000000    -0.000000    -0.000139    -0.104907     0.108824    -0.070591     0.034306     0.036284
    7 Mn     1.476350     0.000784    16.938520     1.560900    -0.000000     0.000116     0.002748     0.002750     0.000000    -0.000000    -0.000149    -0.014052     0.033239    -0.012566     0.001484     0.011082
    8 Mn     1.476350     3.164575    20.071320     1.569466    -0.000000     0.000426     0.001242     0.001313    -0.000000     0.000000     0.000155    -0.025151     0.053208    -0.021444     0.003706     0.017738
    9 Mn     1.476350     0.000588    23.206160     1.568371    -0.000000    -0.000398    -0.002384     0.002417     0.000000    -0.000000    -0.000179    -0.014835     0.022227    -0.011122     0.003704     0.007418
   10 Mn     1.476350     3.165562    26.460120     1.481245    -0.000000    -0.000790    -0.005572     0.005628     0.000000    -0.000000    -0.000288    -0.102414     0.108563    -0.069301     0.033086     0.036215
   11 O     -0.000000     3.163164    12.502480    -0.516463     0.000000     0.000130    -0.120644     0.120644    -0.000000    -0.000000    -0.000007    -0.078599    -0.077257    -0.026423    -0.025752     0.052176
   12 O      0.000000     0.000361    15.692560    -0.805779    -0.000000    -0.000079    -0.012522     0.012522    -0.000000     0.000000    -0.000233     0.005466    -0.011156    -0.003737    -0.000855     0.004592
   13 O     -0.000000     3.163620    18.836800    -0.784607     0.000000    -0.000096    -0.033364     0.033364     0.000000    -0.000000     0.000127     0.006293    -0.075530    -0.025177     0.009442     0.015735
   14 O      0.000000     0.000746    21.996160    -0.793858    -0.000000     0.000046    -0.032143     0.032143    -0.000000     0.000000     0.000520     0.012298    -0.062181    -0.020738     0.004225     0.016512
   15 O     -0.000000     3.163936    25.197520    -0.810839     0.000000    -0.000086    -0.035977     0.035977    -0.000000    -0.000000    -0.000538     0.006021    -0.087663    -0.029228     0.011607     0.017621
   16 O     -0.000000     3.166473    27.644000    -0.516010     0.000000     0.000510     0.119916     0.119917    -0.000000     0.000000    -0.000378    -0.079007    -0.081756    -0.027254    -0.025878     0.053131
   17 O     -0.000000     3.163829    14.946400    -0.807368     0.000000     0.000383     0.034554     0.034556     0.000000     0.000000    -0.000115     0.009047    -0.084506    -0.028169     0.009561     0.018608
   18 O      0.000000     0.001411    18.147560    -0.790715    -0.000000     0.000210     0.031936     0.031936     0.000000    -0.000000     0.000420     0.012457    -0.060160    -0.020061     0.003805     0.016255
   19 O      0.000000     3.166144    21.305120    -0.786961    -0.000000     0.000526     0.033190     0.033194     0.000000     0.000000     0.000099     0.005922    -0.073666    -0.024556     0.009317     0.015239
   20 O      0.000000     0.002075    24.452200    -0.809204    -0.000000     0.000251     0.015940     0.015942     0.000000    -0.000000     0.000173     0.004652    -0.007978    -0.002677    -0.000979     0.003656
   21 O      1.476350     1.211271    13.490920    -0.784638     0.000000     0.042785    -0.035879     0.055838     0.000000    -0.000000    -0.003402     0.004986     0.132483    -0.024741    -0.019588     0.044329
   22 O      1.476350     4.393559    16.882760    -0.790936    -0.000000     0.030553     0.000195     0.030554    -0.000000     0.000000     0.005906     0.038431     0.015736    -0.023070     0.006477     0.016593
   23 O      1.476350     1.229901    20.070480    -0.790331     0.000000     0.034140    -0.000177     0.034140     0.000000     0.000000     0.000185     0.039540     0.019658    -0.023048     0.006554     0.016494
   24 O      1.476350     4.393274    23.258520    -0.792472    -0.000000     0.029340    -0.000637     0.029347    -0.000000    -0.000000    -0.005242     0.038821     0.017597    -0.023286     0.006808     0.016478
   25 O      1.476350     1.214712    26.655200    -0.781403    -0.000000     0.038762     0.035582     0.052617    -0.000000    -0.000000     0.004041     0.007075     0.127746    -0.025070    -0.017754     0.042823
   26 O      1.476350     5.114887    13.490960    -0.784682     0.000000    -0.042500    -0.035941     0.055660    -0.000000    -0.000000     0.003460     0.005533     0.132898    -0.025088    -0.019383     0.044472
   27 O      1.476350     1.934010    16.881920    -0.790772    -0.000000    -0.030877     0.000493     0.030881     0.000000    -0.000000    -0.005642     0.039571     0.016088    -0.023567     0.006463     0.017104
   28 O      1.476350     5.099275    20.069840    -0.789683     0.000000    -0.033054    -0.000346     0.033056    -0.000000     0.000000    -0.000365     0.039740     0.021077    -0.023387     0.007030     0.016357
   29 O      1.476350     1.934118    23.255920    -0.791643     0.000000    -0.029109    -0.000985     0.029126     0.000000     0.000000     0.005268     0.038899     0.015516    -0.023020     0.006156     0.016864
   30 O      1.476350     5.116861    26.655080    -0.781489     0.000000    -0.039982     0.036030     0.053821     0.000000    -0.000000    -0.003457     0.007535     0.127337    -0.025167    -0.017455     0.042622
 
The sperically averaged electron density of each atom fit to a function of the form exp(a - br) for r >=rmin_cloud_penetration
atom number,atomic symbol, x, y, z, a, b, Rsquared where a and b are in atomic units and Rsquared is the squared correlation coefficient
    1 Mn    -0.000000     0.000051    13.786720    -0.395944     1.783926     0.999922
    2 Mn     0.000000     3.163822    16.886600    -0.588500     1.748604     0.999998
    3 Mn    -0.000000     0.001525    20.072480    -0.594414     1.748584     0.999999
    4 Mn    -0.000000     3.163727    23.256160    -0.600092     1.748648     0.999998
    5 Mn     0.000000     0.002847    26.359360    -0.390573     1.783812     0.999888
    6 Mn     1.476350     3.163108    13.685000    -0.278703     1.806587     0.999931
    7 Mn     1.476350     0.000784    16.938520    -0.575575     1.749156     0.999999
    8 Mn     1.476350     3.164575    20.071320    -0.596425     1.748762     0.999999
    9 Mn     1.476350     0.000588    23.206160    -0.586167     1.749127     0.999999
   10 Mn     1.476350     3.165562    26.460120    -0.290890     1.805445     0.999924
   11 O     -0.000000     3.163164    12.502480    -1.531326     1.751578     0.991938
   12 O      0.000000     0.000361    15.692560    -0.803852     1.754991     0.999997
   13 O     -0.000000     3.163620    18.836800    -0.818408     1.750351     0.999999
   14 O      0.000000     0.000746    21.996160    -0.818306     1.750161     0.999998
   15 O     -0.000000     3.163936    25.197520    -0.743809     1.758688     0.999992
   16 O     -0.000000     3.166473    27.644000    -1.704362     1.718546     0.990040
   17 O     -0.000000     3.163829    14.946400    -0.749204     1.758688     0.999992
   18 O      0.000000     0.001411    18.147560    -0.824023     1.750218     0.999998
   19 O      0.000000     3.166144    21.305120    -0.814178     1.750318     0.999999
   20 O      0.000000     0.002075    24.452200    -0.792462     1.754908     0.999997
   21 O      1.476350     1.211271    13.490920    -0.773303     1.797400     0.999937
   22 O      1.476350     4.393559    16.882760    -0.822897     1.750278     0.999999
   23 O      1.476350     1.229901    20.070480    -0.815867     1.750268     0.999998
   24 O      1.476350     4.393274    23.258520    -0.823840     1.750326     0.999999
   25 O      1.476350     1.214712    26.655200    -0.793429     1.794502     0.999863
   26 O      1.476350     5.114887    13.490960    -0.770195     1.797999     0.999937
   27 O      1.476350     1.934010    16.881920    -0.824339     1.750322     0.999999
   28 O      1.476350     5.099275    20.069840    -0.821123     1.750317     0.999998
   29 O      1.476350     1.934118    23.255920    -0.820071     1.750316     0.999999
   30 O      1.476350     5.116861    26.655080    -0.808801     1.791469     0.999855
 
 2024/04/04  18:55:50
