   94
jmolscript: load "" {1 1 1} spacegroup "x,y,z" unitcell [{      9.941464     0.000000     0.000000 }, {      0.000000    25.295948     0.000000 }, {      0.000000     0.000000    20.000000 }]
C      1.251223     2.149751    10.005020    -0.034345
C      0.013182     0.012926    10.002760    -0.000665
C      1.259375     0.720530    10.004780     0.009105
C     -0.005846     2.806206    10.004460     0.022267
C      3.728049     2.213851    10.007120    -0.104126
C      2.503062     0.021932    10.006480    -0.010190
C      3.728049     0.764494    10.007420     0.010474
C      2.473009     2.915206    10.006340     0.171451
C      6.204875     2.149751    10.005020    -0.034345
C      4.953036     0.021932    10.006480    -0.010190
C      6.196723     0.720530    10.004780     0.009106
C      4.983089     2.915206    10.006340     0.171451
C      8.698781     2.105483    10.003300    -0.015129
C      7.442916     0.012926    10.002760    -0.000665
C      8.698781     0.695082    10.002160     0.001019
C      7.461944     2.806206    10.004460     0.022267
C      1.191375     6.329046    10.008020     0.106421
C     -0.019227     4.217644    10.006520    -0.025410
C      1.191236     4.913637    10.007200     0.108655
C     -0.019127     7.024735    10.008840    -0.022876
C      6.264723     6.329046    10.008020     0.106421
C      6.264862     4.913637    10.007200     0.108655
C      8.698781     6.320167    10.009320    -0.006293
C      7.475325     4.217644    10.006520    -0.025410
C      8.698781     4.922212    10.007880    -0.003789
C      7.475225     7.024735    10.008840    -0.022876
C      1.259176    10.522254    10.005200     0.007865
C     -0.005836     8.436199    10.007540     0.020900
C      1.250954     9.093160    10.006940    -0.033707
C      0.012904    11.229757    10.003040    -0.000267
C      3.728049    10.478467    10.007220     0.009183
C      2.472820     8.327983    10.007620     0.172601
C      3.728049     9.028908    10.007900    -0.105048
C      2.502893    11.221232    10.005940    -0.008817
C      6.196922    10.522254    10.005200     0.007865
C      4.983278     8.327983    10.007620     0.172601
C      6.205144     9.093160    10.006940    -0.033707
C      4.953205    11.221232    10.005940    -0.008817
C      8.698781    10.547120    10.003520    -0.000875
C      7.461934     8.436199    10.007540     0.020900
C      8.698781     9.136719    10.006160    -0.013258
C      7.443194    11.229757    10.003040    -0.000267
C      1.247813    14.785254    10.004460    -0.035792
C      0.012367    12.649568    10.002160    -0.002093
C      1.257705    13.357095    10.003980     0.007190
C     -0.007933    15.447224    10.002480     0.021843
C      3.728049    14.853275    10.007000    -0.112319
C      2.502903    12.659990    10.005200    -0.007287
C      3.728049    13.402400    10.005800     0.006989
C      2.467302    15.548104    10.006980     0.175957
C      6.208285    14.785254    10.004460    -0.035792
C      4.953195    12.659990    10.005200    -0.007287
C      6.198393    13.357095    10.003980     0.007190
C      4.988796    15.548104    10.006980     0.175957
C      8.698781    14.744831    10.001400    -0.017213
C      7.443731    12.649568    10.002160    -0.002093
C      8.698781    13.333089    10.001380     0.002846
C      7.464031    15.447224    10.002480     0.021843
C      1.181911    18.979246    10.005340     0.104980
C     -0.024705    16.860508    10.002840    -0.026567
C      1.181831    17.559132    10.005480     0.106067
C     -0.024625    19.677769    10.002760    -0.025258
C      6.274187    18.979246    10.005340     0.104980
C      6.274267    17.559132    10.005480     0.106067
C      8.698781    18.969634    10.001920    -0.007872
C      7.480803    16.860508    10.002840    -0.026567
C      8.698781    17.568415    10.001880    -0.005227
C      7.480723    19.677769    10.002760    -0.025258
C      1.257903    23.181359    10.003820     0.009014
C     -0.007744    21.091205    10.002020     0.020430
C      1.247972    21.753200    10.003760    -0.035138
C      0.012675    23.888937    10.002060    -0.002887
C      3.728049    23.136256    10.007040     0.009634
C      2.467382    20.990224    10.006280     0.176567
C      3.728049    21.685154    10.007100    -0.115856
C      2.502952    23.878945    10.006160    -0.008842
C      6.198195    23.181359    10.003820     0.009014
C      4.988716    20.990224    10.006280     0.176567
C      6.208126    21.753200    10.003760    -0.035138
C      4.953146    23.878945    10.006160    -0.008842
C      8.698781    23.205567    10.000880     0.002422
C      7.463842    21.091205    10.002020     0.020430
C      8.698781    21.793623    10.000820    -0.016838
C      7.443423    23.888937    10.002060    -0.002887
N      2.418062     4.296314    10.006680    -0.263381
N      2.418032     6.946647    10.007680    -0.264746
N      5.038036     4.296314    10.006680    -0.263381
N      5.038066     6.946647    10.007680    -0.264746
N      2.401888    16.929035    10.008300    -0.304537
N      2.402017    19.609217    10.007500    -0.304076
N      5.054210    16.929035    10.008300    -0.304537
N      5.054081    19.609217    10.007500    -0.304076
Co     3.728049     5.621544    10.007220     0.299023
Fe     3.728049    18.268987    10.010220     0.533390
 
 Chargemol version 3.5 September 26, 2017.
See ddec.sourceforge.net for latest version.
 
Computational parameters:
Number of radial integration shells =    100
Cutoff radius (pm) =    500
Error in the integrated total number of electrons before renormalization (e) =    1.8291E-06
Charge convergence tolerance =    1.0000E-05
Minimum radius for electron cloud penetration fitting (pm) =    200
Minimum decay exponent for electron density of buried atom tails =   1.7500
Maximum decay exponent for electron density of buried atom tails =  2.5000
Number of iterations to convergence =      7
 
The following XYZ coordinates are in angstroms. The atomic dipoles and quadrupoles are in atomic units.
atom number, atomic symbol, x, y, z, net_charge, dipole_x, dipole_y, dipole_z, dipole_mag, Qxy, Qxz, Qyz,Q(x^2-y^2), Q(3z^2 - R^2), three eigenvalues of traceless quadrupole moment tensor
    1 C      1.251223     2.149751    10.005020    -0.034345    -0.006269    -0.007743     0.000334     0.009969    -0.007738    -0.000326     0.000009    -0.016584     0.030554    -0.016438     0.006245     0.010192
    2 C      0.013182     0.012926    10.002760    -0.000665     0.001129     0.004605    -0.000404     0.004759    -0.001729     0.000116     0.000080    -0.006029     0.010557    -0.005237     0.001714     0.003522
    3 C      1.259375     0.720530    10.004780     0.009105    -0.002152     0.004133    -0.000201     0.004664    -0.000747    -0.000387    -0.000048    -0.011059     0.012409    -0.007661     0.003511     0.004150
    4 C     -0.005846     2.806206    10.004460     0.022267     0.000238    -0.001311     0.000228     0.001352    -0.002162    -0.000806     0.000046    -0.017383     0.025984    -0.013316     0.004621     0.008695
    5 C      3.728049     2.213851    10.007120    -0.104126     0.000000    -0.011583    -0.000181     0.011584    -0.000000     0.000000    -0.000047    -0.034813    -0.056170    -0.018723    -0.008045     0.026768
    6 C      2.503062     0.021932    10.006480    -0.010190     0.001982    -0.007222     0.000189     0.007491    -0.004017    -0.000029     0.000321    -0.001605     0.007065    -0.005278     0.002253     0.003026
    7 C      3.728049     0.764494    10.007420     0.010474    -0.000000     0.013012    -0.000307     0.013016     0.000000    -0.000000     0.000134     0.000263    -0.011671    -0.003893     0.001817     0.002077
    8 C      2.473009     2.915206    10.006340     0.171451     0.006128     0.055034     0.000344     0.055375    -0.000724     0.000047     0.000162    -0.017279     0.013837    -0.010976     0.004598     0.006378
    9 C      6.204875     2.149751    10.005020    -0.034345     0.006269    -0.007743     0.000334     0.009969     0.007738     0.000326     0.000009    -0.016584     0.030554    -0.016438     0.006245     0.010192
   10 C      4.953036     0.021932    10.006480    -0.010190    -0.001982    -0.007222     0.000189     0.007491     0.004017     0.000029     0.000321    -0.001605     0.007065    -0.005278     0.002253     0.003026
   11 C      6.196723     0.720530    10.004780     0.009106     0.002152     0.004133    -0.000201     0.004664     0.000747     0.000387    -0.000048    -0.011059     0.012409    -0.007661     0.003511     0.004150
   12 C      4.983089     2.915206    10.006340     0.171451    -0.006128     0.055034     0.000344     0.055375     0.000724    -0.000047     0.000162    -0.017279     0.013837    -0.010976     0.004598     0.006378
   13 C      8.698781     2.105483    10.003300    -0.015129    -0.000000     0.005501    -0.000828     0.005563     0.000000     0.000000    -0.000097    -0.001790    -0.003076    -0.001029    -0.000382     0.001412
   14 C      7.442916     0.012926    10.002760    -0.000665    -0.001129     0.004605    -0.000404     0.004759     0.001729    -0.000116     0.000080    -0.006029     0.010557    -0.005237     0.001714     0.003522
   15 C      8.698781     0.695082    10.002160     0.001019    -0.000000    -0.007596     0.000560     0.007617     0.000000     0.000000     0.000220    -0.009810     0.017687    -0.007853     0.001945     0.005908
   16 C      7.461944     2.806206    10.004460     0.022267    -0.000238    -0.001311     0.000228     0.001352     0.002162     0.000806     0.000046    -0.017383     0.025984    -0.013316     0.004621     0.008695
   17 C      1.191375     6.329046    10.008020     0.106421     0.054576     0.042959    -0.000158     0.069455     0.014553     0.000232     0.000307     0.001050     0.071935    -0.026552     0.002567     0.023985
   18 C     -0.019227     4.217644    10.006520    -0.025410    -0.015288    -0.011204    -0.000321     0.018957    -0.007487     0.000122    -0.000039     0.010141     0.057305    -0.018593    -0.000510     0.019103
   19 C      1.191236     4.913637    10.007200     0.108655     0.053647    -0.041882     0.000185     0.068060    -0.014400    -0.000531     0.000247    -0.000267     0.068867    -0.025880     0.002908     0.022972
   20 C     -0.019127     7.024735    10.008840    -0.022876    -0.014787     0.011131     0.000151     0.018509     0.007198    -0.000026     0.000253     0.009903     0.057423    -0.018309    -0.000834     0.019143
   21 C      6.264723     6.329046    10.008020     0.106421    -0.054576     0.042959    -0.000158     0.069455    -0.014553    -0.000232     0.000307     0.001050     0.071935    -0.026552     0.002567     0.023985
   22 C      6.264862     4.913637    10.007200     0.108655    -0.053647    -0.041882     0.000185     0.068060     0.014400     0.000531     0.000247    -0.000267     0.068867    -0.025880     0.002908     0.022972
   23 C      8.698781     6.320167    10.009320    -0.006293    -0.000000     0.014035     0.000092     0.014035    -0.000000    -0.000000    -0.000122     0.000663     0.000671    -0.000465     0.000220     0.000245
   24 C      7.475325     4.217644    10.006520    -0.025410     0.015288    -0.011204    -0.000321     0.018957     0.007487    -0.000122    -0.000039     0.010141     0.057305    -0.018593    -0.000510     0.019103
   25 C      8.698781     4.922212    10.007880    -0.003789     0.000000    -0.014106     0.000055     0.014106    -0.000000     0.000000    -0.000281    -0.000298     0.001424    -0.000386    -0.000205     0.000591
   26 C      7.475225     7.024735    10.008840    -0.022876     0.014787     0.011131     0.000151     0.018509    -0.007198     0.000026     0.000253     0.009903     0.057423    -0.018309    -0.000834     0.019143
   27 C      1.259176    10.522254    10.005200     0.007865    -0.002544    -0.004006     0.000204     0.004750     0.000517    -0.000146    -0.000033    -0.011128     0.013292    -0.007805     0.003371     0.004434
   28 C     -0.005836     8.436199    10.007540     0.020900     0.000104     0.001682    -0.000017     0.001685     0.002070    -0.000160     0.000470    -0.016068     0.024578    -0.012395     0.004151     0.008244
   29 C      1.250954     9.093160    10.006940    -0.033707    -0.006381     0.007918     0.000024     0.010169     0.007239    -0.000143    -0.000062    -0.016845     0.029857    -0.016083     0.006127     0.009956
   30 C      0.012904    11.229757    10.003040    -0.000267     0.000268    -0.005051    -0.000071     0.005059     0.001942    -0.000263     0.000029    -0.005736     0.011704    -0.005421     0.001512     0.003909
   31 C      3.728049    10.478467    10.007220     0.009183    -0.000000    -0.014198    -0.000226     0.014200     0.000000    -0.000000    -0.000165    -0.001201    -0.013175    -0.004396     0.001595     0.002800
   32 C      2.472820     8.327983    10.007620     0.172601     0.006556    -0.055773     0.000030     0.056157     0.001405     0.000222     0.000075    -0.018557     0.013557    -0.011647     0.004519     0.007128
   33 C      3.728049     9.028908    10.007900    -0.105048    -0.000000     0.010561    -0.000020     0.010561     0.000000    -0.000000     0.000269    -0.034796    -0.057618    -0.019208    -0.007795     0.027002
   34 C      2.502893    11.221232    10.005940    -0.008817     0.002121     0.005938     0.000257     0.006311     0.003529     0.000181     0.000113    -0.001103     0.005649    -0.004514     0.001832     0.002682
   35 C      6.196922    10.522254    10.005200     0.007865     0.002544    -0.004006     0.000204     0.004750    -0.000517     0.000146    -0.000033    -0.011128     0.013292    -0.007805     0.003371     0.004434
   36 C      4.983278     8.327983    10.007620     0.172601    -0.006556    -0.055773     0.000030     0.056157    -0.001405    -0.000222     0.000075    -0.018557     0.013557    -0.011647     0.004519     0.007128
   37 C      6.205144     9.093160    10.006940    -0.033707     0.006381     0.007918     0.000024     0.010169    -0.007239     0.000143    -0.000062    -0.016845     0.029857    -0.016083     0.006127     0.009956
   38 C      4.953205    11.221232    10.005940    -0.008817    -0.002121     0.005938     0.000257     0.006311    -0.003529    -0.000181     0.000113    -0.001103     0.005649    -0.004514     0.001832     0.002682
   39 C      8.698781    10.547120    10.003520    -0.000875    -0.000000     0.007298     0.000059     0.007298    -0.000000     0.000000    -0.000067    -0.008025     0.019006    -0.007180     0.000844     0.006336
   40 C      7.461934     8.436199    10.007540     0.020900    -0.000104     0.001682    -0.000017     0.001685    -0.002070     0.000160     0.000470    -0.016068     0.024578    -0.012395     0.004151     0.008244
   41 C      8.698781     9.136719    10.006160    -0.013258    -0.000000    -0.004908    -0.000446     0.004928     0.000000     0.000000     0.000156    -0.001341    -0.003722    -0.001250    -0.000050     0.001300
   42 C      7.443194    11.229757    10.003040    -0.000267    -0.000268    -0.005051    -0.000071     0.005059    -0.001942     0.000263     0.000029    -0.005736     0.011704    -0.005421     0.001512     0.003910
   43 C      1.247813    14.785254    10.004460    -0.035792    -0.008878    -0.008760     0.000069     0.012472    -0.006757     0.000517    -0.000083    -0.018640     0.023989    -0.015519     0.007417     0.008102
   44 C      0.012367    12.649568    10.002160    -0.002093     0.001625     0.004375     0.000100     0.004668    -0.001556     0.000445     0.000161    -0.004854     0.012965    -0.005068     0.000722     0.004346
   45 C      1.257705    13.357095    10.003980     0.007190    -0.001938     0.003491    -0.000355     0.004008    -0.000469     0.000027    -0.000143    -0.011753     0.009965    -0.007556     0.003299     0.004257
   46 C     -0.007933    15.447224    10.002480     0.021843     0.001037    -0.000736     0.000183     0.001284    -0.001912     0.000345     0.000196    -0.016468     0.017417    -0.011364     0.005478     0.005885
   47 C      3.728049    14.853275    10.007000    -0.112319    -0.000000    -0.013681    -0.000009     0.013681    -0.000000     0.000000     0.000569    -0.036506    -0.078830    -0.026282    -0.005115     0.031397
   48 C      2.502903    12.659990    10.005200    -0.007287     0.002233    -0.007172    -0.000062     0.007511    -0.003884    -0.000018     0.000210    -0.001717     0.001549    -0.004239     0.000510     0.003729
   49 C      3.728049    13.402400    10.005800     0.006989    -0.000000     0.014751     0.000313     0.014755     0.000000     0.000000     0.000015    -0.000770    -0.013748    -0.004583     0.001906     0.002676
   50 C      2.467302    15.548104    10.006980     0.175957     0.004653     0.060110    -0.000095     0.060290    -0.002732    -0.000033     0.000278    -0.026285    -0.010099    -0.011740    -0.003371     0.015111
   51 C      6.208285    14.785254    10.004460    -0.035792     0.008878    -0.008760     0.000069     0.012472     0.006757    -0.000517    -0.000083    -0.018640     0.023989    -0.015519     0.007417     0.008102
   52 C      4.953195    12.659990    10.005200    -0.007287    -0.002233    -0.007172    -0.000062     0.007511     0.003884     0.000018     0.000210    -0.001717     0.001549    -0.004239     0.000510     0.003729
   53 C      6.198393    13.357095    10.003980     0.007190     0.001938     0.003491    -0.000355     0.004008     0.000469    -0.000027    -0.000143    -0.011753     0.009965    -0.007556     0.003299     0.004257
   54 C      4.988796    15.548104    10.006980     0.175957    -0.004653     0.060110    -0.000095     0.060290     0.002732     0.000033     0.000278    -0.026285    -0.010099    -0.011740    -0.003371     0.015111
   55 C      8.698781    14.744831    10.001400    -0.017213    -0.000000     0.003021     0.000380     0.003045    -0.000000     0.000000    -0.000212    -0.001043    -0.002803    -0.000957    -0.000054     0.001012
   56 C      7.443731    12.649568    10.002160    -0.002093    -0.001625     0.004375     0.000100     0.004668     0.001556    -0.000445     0.000161    -0.004854     0.012965    -0.005068     0.000722     0.004346
   57 C      8.698781    13.333089    10.001380     0.002846    -0.000000    -0.006812    -0.000078     0.006812     0.000000     0.000000    -0.000419    -0.009361     0.014800    -0.007147     0.002151     0.004996
   58 C      7.464031    15.447224    10.002480     0.021843    -0.001037    -0.000736     0.000183     0.001284     0.001912    -0.000345     0.000196    -0.016468     0.017417    -0.011364     0.005478     0.005885
   59 C      1.181911    18.979246    10.005340     0.104980     0.054526     0.047067    -0.000018     0.072030     0.018476    -0.000186     0.000235     0.000371     0.057264    -0.028023     0.008933     0.019090
   60 C     -0.024705    16.860508    10.002840    -0.026567    -0.014955    -0.013949    -0.000240     0.020453    -0.008314    -0.000014     0.000113     0.011461     0.050974    -0.018594     0.001602     0.016992
   61 C      1.181831    17.559132    10.005480     0.106067     0.054481    -0.046776     0.000402     0.071808    -0.018917     0.000236    -0.000315     0.000345     0.057626    -0.028522     0.009298     0.019224
   62 C     -0.024625    19.677769    10.002760    -0.025258    -0.014792     0.014068     0.000145     0.020414     0.007725    -0.000239     0.000020     0.012284     0.052542    -0.018627     0.001110     0.017517
   63 C      6.274187    18.979246    10.005340     0.104980    -0.054526     0.047067    -0.000018     0.072030    -0.018476     0.000186     0.000235     0.000371     0.057264    -0.028023     0.008933     0.019090
   64 C      6.274267    17.559132    10.005480     0.106067    -0.054481    -0.046776     0.000402     0.071808     0.018917    -0.000236    -0.000315     0.000345     0.057626    -0.028522     0.009298     0.019224
   65 C      8.698781    18.969634    10.001920    -0.007872    -0.000000     0.011831     0.000088     0.011831    -0.000000     0.000000    -0.000546     0.001715    -0.005412    -0.001953     0.000194     0.001760
   66 C      7.480803    16.860508    10.002840    -0.026567     0.014955    -0.013949    -0.000240     0.020453     0.008314     0.000014     0.000113     0.011461     0.050974    -0.018594     0.001602     0.016992
   67 C      8.698781    17.568415    10.001880    -0.005227    -0.000000    -0.011194     0.000277     0.011197     0.000000     0.000000    -0.000277    -0.000536    -0.006258    -0.002108     0.000775     0.001334
   68 C      7.480723    19.677769    10.002760    -0.025258     0.014792     0.014068     0.000145     0.020414    -0.007725     0.000239     0.000020     0.012284     0.052542    -0.018627     0.001110     0.017517
   69 C      1.257903    23.181359    10.003820     0.009014    -0.002288    -0.003259    -0.000120     0.003984     0.000420     0.000297     0.000405    -0.011934     0.007724    -0.007277     0.002504     0.004773
   70 C     -0.007744    21.091205    10.002020     0.020430    -0.000005     0.000970    -0.000120     0.000978     0.001599     0.000172     0.000046    -0.017031     0.016364    -0.011393     0.005449     0.005945
   71 C      1.247972    21.753200    10.003760    -0.035138    -0.009186     0.007672     0.000176     0.011970     0.007390    -0.000039     0.000354    -0.018322     0.022318    -0.015491     0.007303     0.008188
   72 C      0.012675    23.888937    10.002060    -0.002887     0.000798    -0.004630     0.000454     0.004720     0.001546    -0.000054     0.000232    -0.005959     0.013994    -0.005691     0.001012     0.004678
   73 C      3.728049    23.136256    10.007040     0.009634    -0.000000    -0.015194    -0.000613     0.015207    -0.000000     0.000000     0.000161    -0.002132    -0.015087    -0.005032     0.001449     0.003583
   74 C      2.467382    20.990224    10.006280     0.176567     0.005697    -0.059755     0.000130     0.060026     0.003001    -0.000201     0.000160    -0.025864    -0.007664    -0.012003    -0.002551     0.014554
   75 C      3.728049    21.685154    10.007100    -0.115856     0.000000     0.013355     0.000286     0.013358     0.000000     0.000000     0.000051    -0.038522    -0.077132    -0.025711    -0.006406     0.032117
   76 C      2.502952    23.878945    10.006160    -0.008842     0.002232     0.007133     0.000067     0.007474     0.003901     0.000563    -0.000011    -0.001323     0.003544    -0.004581     0.001158     0.003423
   77 C      6.198195    23.181359    10.003820     0.009014     0.002288    -0.003259    -0.000120     0.003984    -0.000420    -0.000297     0.000405    -0.011934     0.007724    -0.007277     0.002504     0.004773
   78 C      4.988716    20.990224    10.006280     0.176567    -0.005697    -0.059755     0.000130     0.060026    -0.003001     0.000201     0.000160    -0.025864    -0.007664    -0.012003    -0.002551     0.014554
   79 C      6.208126    21.753200    10.003760    -0.035138     0.009186     0.007672     0.000176     0.011970    -0.007390     0.000039     0.000354    -0.018322     0.022318    -0.015491     0.007303     0.008188
   80 C      4.953146    23.878945    10.006160    -0.008842    -0.002232     0.007133     0.000067     0.007474    -0.003901    -0.000563    -0.000011    -0.001323     0.003544    -0.004581     0.001158     0.003423
   81 C      8.698781    23.205567    10.000880     0.002422    -0.000000     0.007575    -0.000262     0.007580    -0.000000     0.000000     0.000025    -0.008725     0.014541    -0.006786     0.001939     0.004847
   82 C      7.463842    21.091205    10.002020     0.020430     0.000005     0.000970    -0.000120     0.000978    -0.001599    -0.000172     0.000046    -0.017031     0.016364    -0.011393     0.005449     0.005945
   83 C      8.698781    21.793623    10.000820    -0.016838    -0.000000    -0.003673     0.000368     0.003691     0.000000     0.000000    -0.000016    -0.000984    -0.000045    -0.000484    -0.000015     0.000500
   84 C      7.443423    23.888937    10.002060    -0.002887    -0.000798    -0.004630     0.000454     0.004720    -0.001546     0.000054     0.000232    -0.005959     0.013994    -0.005691     0.001012     0.004678
   85 N      2.418062     4.296314    10.006680    -0.263381    -0.068305    -0.053325    -0.000017     0.086655    -0.044218     0.000069     0.000323    -0.000055    -0.113658    -0.037893    -0.025269     0.063162
   86 N      2.418032     6.946647    10.007680    -0.264746    -0.068171     0.052716     0.000366     0.086176     0.044015     0.000166    -0.000158     0.001169    -0.112785    -0.037599    -0.025217     0.062817
   87 N      5.038036     4.296314    10.006680    -0.263381     0.068305    -0.053325    -0.000017     0.086655     0.044218    -0.000069     0.000323    -0.000055    -0.113658    -0.037893    -0.025269     0.063162
   88 N      5.038066     6.946647    10.007680    -0.264746     0.068171     0.052716     0.000366     0.086176    -0.044015    -0.000166    -0.000158     0.001169    -0.112785    -0.037599    -0.025217     0.062817
   89 N      2.401888    16.929035    10.008300    -0.304537    -0.080312    -0.064263    -0.000570     0.102859    -0.038389     0.000391    -0.000395     0.007138    -0.068690    -0.027107    -0.022901     0.050007
   90 N      2.402017    19.609217    10.007500    -0.304076    -0.080347     0.064718    -0.000397     0.103170     0.038208    -0.000121    -0.000052     0.006567    -0.069390    -0.026785    -0.023130     0.049914
   91 N      5.054210    16.929035    10.008300    -0.304537     0.080312    -0.064263    -0.000570     0.102859     0.038389    -0.000391    -0.000395     0.007138    -0.068690    -0.027107    -0.022901     0.050007
   92 N      5.054081    19.609217    10.007500    -0.304076     0.080347     0.064718    -0.000397     0.103170    -0.038208     0.000121    -0.000052     0.006567    -0.069390    -0.026785    -0.023130     0.049914
   93 Co     3.728049     5.621544    10.007220     0.299023     0.000000     0.000359    -0.000538     0.000647     0.000000     0.000000     0.000192    -0.004224    -0.706869    -0.235623     0.115700     0.119923
   94 Fe     3.728049    18.268987    10.010220     0.533390     0.000000     0.000009     0.000617     0.000617    -0.000000     0.000000     0.000274    -0.038195     0.926407    -0.173499    -0.135304     0.308802
 
The sperically averaged electron density of each atom fit to a function of the form exp(a - br) for r >=rmin_cloud_penetration
atom number,atomic symbol, x, y, z, a, b, Rsquared where a and b are in atomic units and Rsquared is the squared correlation coefficient
    1 C      1.251223     2.149751    10.005020    -0.430149     1.910880     0.998836
    2 C      0.013182     0.012926    10.002760     0.001954     1.991195     0.999746
    3 C      1.259375     0.720530    10.004780    -0.023329     1.987793     0.999418
    4 C     -0.005846     2.806206    10.004460    -0.257925     1.954306     0.999009
    5 C      3.728049     2.213851    10.007120    -0.645819     1.839547     0.998901
    6 C      2.503062     0.021932    10.006480    -0.023922     1.979622     0.999636
    7 C      3.728049     0.764494    10.007420    -0.096866     1.971250     0.998915
    8 C      2.473009     2.915206    10.006340    -0.734877     1.851383     0.999118
    9 C      6.204875     2.149751    10.005020    -0.430148     1.910880     0.998836
   10 C      4.953036     0.021932    10.006480    -0.023922     1.979622     0.999636
   11 C      6.196723     0.720530    10.004780    -0.023329     1.987793     0.999418
   12 C      4.983089     2.915206    10.006340    -0.734877     1.851383     0.999118
   13 C      8.698781     2.105483    10.003300    -0.025177     1.987906     0.999529
   14 C      7.442916     0.012926    10.002760     0.001954     1.991195     0.999746
   15 C      8.698781     0.695082    10.002160     0.008415     1.994466     0.999777
   16 C      7.461944     2.806206    10.004460    -0.257925     1.954306     0.999009
   17 C      1.191375     6.329046    10.008020    -0.797854     1.836689     0.998851
   18 C     -0.019227     4.217644    10.006520    -0.460599     1.909271     0.998819
   19 C      1.191236     4.913637    10.007200    -0.800587     1.836498     0.998852
   20 C     -0.019127     7.024735    10.008840    -0.452545     1.912231     0.998809
   21 C      6.264723     6.329046    10.008020    -0.797854     1.836689     0.998851
   22 C      6.264862     4.913637    10.007200    -0.800587     1.836498     0.998852
   23 C      8.698781     6.320167    10.009320    -0.150955     1.971070     0.998109
   24 C      7.475325     4.217644    10.006520    -0.460599     1.909271     0.998819
   25 C      8.698781     4.922212    10.007880    -0.147918     1.972998     0.998107
   26 C      7.475225     7.024735    10.008840    -0.452546     1.912231     0.998809
   27 C      1.259176    10.522254    10.005200    -0.025693     1.987426     0.999414
   28 C     -0.005836     8.436199    10.007540    -0.257315     1.954036     0.999005
   29 C      1.250954     9.093160    10.006940    -0.439789     1.908118     0.998824
   30 C      0.012904    11.229757    10.003040     0.001756     1.991100     0.999745
   31 C      3.728049    10.478467    10.007220    -0.098394     1.970609     0.998885
   32 C      2.472820     8.327983    10.007620    -0.736924     1.851210     0.999129
   33 C      3.728049     9.028908    10.007900    -0.649918     1.838730     0.998888
   34 C      2.502893    11.221232    10.005940    -0.014181     1.982267     0.999641
   35 C      6.196922    10.522254    10.005200    -0.025693     1.987426     0.999414
   36 C      4.983278     8.327983    10.007620    -0.736924     1.851210     0.999129
   37 C      6.205144     9.093160    10.006940    -0.439789     1.908118     0.998824
   38 C      4.953205    11.221232    10.005940    -0.014181     1.982267     0.999641
   39 C      8.698781    10.547120    10.003520     0.028024     1.997382     0.999809
   40 C      7.461934     8.436199    10.007540    -0.257315     1.954036     0.999005
   41 C      8.698781     9.136719    10.006160    -0.003757     1.993826     0.999555
   42 C      7.443194    11.229757    10.003040     0.001755     1.991100     0.999745
   43 C      1.247813    14.785254    10.004460    -0.197018     1.954645     0.999466
   44 C      0.012367    12.649568    10.002160    -0.017064     1.986414     0.999741
   45 C      1.257705    13.357095    10.003980     0.018742     1.994182     0.999652
   46 C     -0.007933    15.447224    10.002480    -0.069915     1.987595     0.999700
   47 C      3.728049    14.853275    10.007000    -0.331505     1.907090     0.999034
   48 C      2.502903    12.659990    10.005200     0.016227     1.986546     0.999770
   49 C      3.728049    13.402400    10.005800     0.062667     1.997821     0.999556
   50 C      2.467302    15.548104    10.006980    -0.282121     1.952645     0.999490
   51 C      6.208285    14.785254    10.004460    -0.197018     1.954645     0.999466
   52 C      4.953195    12.659990    10.005200     0.016227     1.986546     0.999770
   53 C      6.198393    13.357095    10.003980     0.018742     1.994182     0.999652
   54 C      4.988796    15.548104    10.006980    -0.282121     1.952645     0.999490
   55 C      8.698781    14.744831    10.001400    -0.035473     1.984479     0.999611
   56 C      7.443731    12.649568    10.002160    -0.017064     1.986414     0.999741
   57 C      8.698781    13.333089    10.001380     0.006561     1.993402     0.999795
   58 C      7.464031    15.447224    10.002480    -0.069915     1.987595     0.999700
   59 C      1.181911    18.979246    10.005340    -0.388477     1.937660     0.998974
   60 C     -0.024705    16.860508    10.002840    -0.137411     1.970915     0.999460
   61 C      1.181831    17.559132    10.005480    -0.365435     1.942405     0.999069
   62 C     -0.024625    19.677769    10.002760    -0.144629     1.970210     0.999435
   63 C      6.274187    18.979246    10.005340    -0.388477     1.937660     0.998974
   64 C      6.274267    17.559132    10.005480    -0.365435     1.942405     0.999069
   65 C      8.698781    18.969634    10.001920    -0.026476     1.989829     0.999105
   66 C      7.480803    16.860508    10.002840    -0.137411     1.970915     0.999460
   67 C      8.698781    17.568415    10.001880     0.018896     2.000714     0.999229
   68 C      7.480723    19.677769    10.002760    -0.144630     1.970210     0.999435
   69 C      1.257903    23.181359    10.003820     0.019990     1.994367     0.999653
   70 C     -0.007744    21.091205    10.002020    -0.066998     1.988203     0.999703
   71 C      1.247972    21.753200    10.003760    -0.198365     1.954182     0.999461
   72 C      0.012675    23.888937    10.002060    -0.018974     1.985888     0.999744
   73 C      3.728049    23.136256    10.007040     0.074470     2.001334     0.999557
   74 C      2.467382    20.990224    10.006280    -0.285040     1.952434     0.999493
   75 C      3.728049    21.685154    10.007100    -0.337429     1.904146     0.999048
   76 C      2.502952    23.878945    10.006160     0.018782     1.987589     0.999773
   77 C      6.198195    23.181359    10.003820     0.019990     1.994367     0.999653
   78 C      4.988716    20.990224    10.006280    -0.285039     1.952434     0.999493
   79 C      6.208126    21.753200    10.003760    -0.198365     1.954182     0.999461
   80 C      4.953146    23.878945    10.006160     0.018782     1.987589     0.999773
   81 C      8.698781    23.205567    10.000880    -0.009364     1.990528     0.999775
   82 C      7.463842    21.091205    10.002020    -0.066998     1.988203     0.999703
   83 C      8.698781    21.793623    10.000820    -0.039070     1.983716     0.999611
   84 C      7.443423    23.888937    10.002060    -0.018974     1.985888     0.999744
   85 N      2.418062     4.296314    10.006680    -0.805141     1.788559     0.999449
   86 N      2.418032     6.946647    10.007680    -0.805741     1.788013     0.999450
   87 N      5.038036     4.296314    10.006680    -0.805141     1.788559     0.999449
   88 N      5.038066     6.946647    10.007680    -0.805741     1.788013     0.999450
   89 N      2.401888    16.929035    10.008300    -0.637037     1.854148     0.999574
   90 N      2.402017    19.609217    10.007500    -0.636753     1.854125     0.999575
   91 N      5.054210    16.929035    10.008300    -0.637037     1.854148     0.999574
   92 N      5.054081    19.609217    10.007500    -0.636753     1.854125     0.999575
   93 Co     3.728049     5.621544    10.007220    -0.141622     1.761271     0.999588
   94 Fe     3.728049    18.268987    10.010220     0.085207     1.826969     0.999890
 
 2024/04/06  18:14:31
