   32
jmolscript: load "" {1 1 1} spacegroup "x,y,z" unitcell [{      5.015053     0.000000     0.000000 }, {      0.000000     8.629276     0.000000 }, {      0.000000     0.000000     0.000000 }]
Cu     0.000000    -0.001795     9.969441    -0.006619
Cu     2.507526     4.312843     9.969441    -0.006619
Cu     2.507526     1.436947    12.058234     0.006618
Cu     0.000000     5.751585    12.058234     0.006619
Cu     0.000000     2.877691    14.122365     0.006619
Cu     2.507526     7.192329    14.122365     0.006619
Cu     0.000000     0.001795    16.211158    -0.006619
Cu     2.507526     4.316433    16.211158    -0.006619
Cu     3.761290     2.155524     9.969441    -0.006619
Cu     1.253763     6.470162     9.969441    -0.006619
Cu     1.253763     3.594266    12.058234     0.006619
Cu     3.761290     7.908904    12.058234     0.006618
Cu     1.253763     0.720372    14.122365     0.006619
Cu     3.761290     5.035010    14.122365     0.006619
Cu     3.761290     2.159114    16.211158    -0.006619
Cu     1.253763     6.473752    16.211158    -0.006619
Cu     1.253763     2.155524     9.969441    -0.006619
Cu     3.761290     6.470162     9.969441    -0.006619
Cu     3.761290     3.594266    12.058234     0.006618
Cu     1.253763     7.908904    12.058234     0.006618
Cu     3.761290     0.720372    14.122365     0.006619
Cu     1.253763     5.035010    14.122365     0.006619
Cu     1.253763     2.159114    16.211158    -0.006619
Cu     3.761290     6.473752    16.211158    -0.006619
Cu     2.507526    -0.001795     9.969441    -0.006619
Cu     0.000000     4.312843     9.969441    -0.006619
Cu     0.000000     1.436947    12.058234     0.006618
Cu     2.507526     5.751585    12.058234     0.006618
Cu     2.507526     2.877691    14.122365     0.006619
Cu     0.000000     7.192329    14.122365     0.006619
Cu     2.507526     0.001795    16.211158    -0.006619
Cu     0.000000     4.316433    16.211158    -0.006619
 
 Chargemol version 3.5 September 26, 2017.
See ddec.sourceforge.net for latest version.
 
Computational parameters:
Number of radial integration shells =    100
Cutoff radius (pm) =    500
Error in the integrated total number of electrons before renormalization (e) =    2.2801E-04
Charge convergence tolerance =    1.0000E-05
Minimum radius for electron cloud penetration fitting (pm) =    200
Minimum decay exponent for electron density of buried atom tails =   1.7500
Maximum decay exponent for electron density of buried atom tails =  2.5000
Number of iterations to convergence =      7
 
The following XYZ coordinates are in angstroms. The atomic dipoles and quadrupoles are in atomic units.
atom number, atomic symbol, x, y, z, net_charge, dipole_x, dipole_y, dipole_z, dipole_mag, Qxy, Qxz, Qyz,Q(x^2-y^2), Q(3z^2 - R^2), three eigenvalues of traceless quadrupole moment tensor
    1 Cu     0.000000    -0.001795     9.969441    -0.006619     0.000000    -0.000279    -0.075044     0.075044     0.000000     0.000000     0.000733    -0.002597     0.268051    -0.045974    -0.043381     0.089354
    2 Cu     2.507526     4.312843     9.969441    -0.006619     0.000000    -0.000279    -0.075044     0.075044     0.000000     0.000000     0.000733    -0.002597     0.268051    -0.045974    -0.043381     0.089354
    3 Cu     2.507526     1.436947    12.058234     0.006618    -0.000000     0.000207    -0.017142     0.017144     0.000000     0.000000     0.000046    -0.005506     0.020262    -0.006130    -0.000624     0.006754
    4 Cu     0.000000     5.751585    12.058234     0.006619    -0.000000     0.000204    -0.017142     0.017143     0.000000     0.000000     0.000046    -0.005506     0.020262    -0.006130    -0.000624     0.006754
    5 Cu     0.000000     2.877691    14.122365     0.006619     0.000000    -0.000207     0.017152     0.017153     0.000000     0.000000     0.000046    -0.005506     0.020264    -0.006130    -0.000625     0.006755
    6 Cu     2.507526     7.192329    14.122365     0.006619     0.000000    -0.000204     0.017152     0.017153     0.000000     0.000000     0.000046    -0.005506     0.020263    -0.006130    -0.000624     0.006755
    7 Cu     0.000000     0.001795    16.211158    -0.006619    -0.000000     0.000279     0.075033     0.075034     0.000000     0.000000     0.000733    -0.002597     0.268051    -0.045974    -0.043381     0.089354
    8 Cu     2.507526     4.316433    16.211158    -0.006619    -0.000000     0.000279     0.075033     0.075034     0.000000     0.000000     0.000733    -0.002597     0.268051    -0.045974    -0.043381     0.089354
    9 Cu     3.761290     2.155524     9.969441    -0.006619     0.000000    -0.000279    -0.075044     0.075044     0.000000     0.000000     0.000733    -0.002597     0.268051    -0.045974    -0.043381     0.089354
   10 Cu     1.253763     6.470162     9.969441    -0.006619     0.000000    -0.000279    -0.075044     0.075044     0.000000     0.000000     0.000733    -0.002597     0.268051    -0.045974    -0.043381     0.089354
   11 Cu     1.253763     3.594266    12.058234     0.006619     0.000000     0.000207    -0.017142     0.017144     0.000000     0.000000     0.000046    -0.005506     0.020262    -0.006130    -0.000624     0.006754
   12 Cu     3.761290     7.908904    12.058234     0.006618     0.000000     0.000204    -0.017142     0.017143     0.000000     0.000000     0.000046    -0.005506     0.020262    -0.006130    -0.000624     0.006754
   13 Cu     1.253763     0.720372    14.122365     0.006619     0.000000    -0.000206     0.017152     0.017153     0.000000     0.000000     0.000046    -0.005506     0.020263    -0.006130    -0.000624     0.006755
   14 Cu     3.761290     5.035010    14.122365     0.006619     0.000000    -0.000204     0.017152     0.017153     0.000000     0.000000     0.000046    -0.005506     0.020264    -0.006130    -0.000625     0.006755
   15 Cu     3.761290     2.159114    16.211158    -0.006619     0.000000     0.000279     0.075033     0.075034     0.000000     0.000000     0.000733    -0.002597     0.268051    -0.045974    -0.043381     0.089354
   16 Cu     1.253763     6.473752    16.211158    -0.006619     0.000000     0.000279     0.075033     0.075034     0.000000     0.000000     0.000733    -0.002597     0.268051    -0.045974    -0.043381     0.089354
   17 Cu     1.253763     2.155524     9.969441    -0.006619     0.000000    -0.000279    -0.075044     0.075044    -0.000000    -0.000000     0.000733    -0.002597     0.268051    -0.045974    -0.043381     0.089355
   18 Cu     3.761290     6.470162     9.969441    -0.006619     0.000000    -0.000279    -0.075044     0.075044    -0.000000    -0.000000     0.000733    -0.002597     0.268051    -0.045974    -0.043381     0.089355
   19 Cu     3.761290     3.594266    12.058234     0.006618     0.000000     0.000207    -0.017142     0.017144    -0.000000    -0.000000     0.000046    -0.005506     0.020262    -0.006130    -0.000624     0.006754
   20 Cu     1.253763     7.908904    12.058234     0.006618     0.000000     0.000204    -0.017142     0.017143    -0.000000    -0.000000     0.000046    -0.005506     0.020262    -0.006130    -0.000624     0.006754
   21 Cu     3.761290     0.720372    14.122365     0.006619     0.000000    -0.000206     0.017152     0.017153    -0.000000    -0.000000     0.000046    -0.005506     0.020263    -0.006130    -0.000624     0.006755
   22 Cu     1.253763     5.035010    14.122365     0.006619     0.000000    -0.000204     0.017152     0.017153    -0.000000    -0.000000     0.000046    -0.005506     0.020264    -0.006130    -0.000625     0.006755
   23 Cu     1.253763     2.159114    16.211158    -0.006619     0.000000     0.000279     0.075033     0.075034    -0.000000    -0.000000     0.000733    -0.002597     0.268051    -0.045974    -0.043381     0.089354
   24 Cu     3.761290     6.473752    16.211158    -0.006619     0.000000     0.000279     0.075033     0.075034    -0.000000    -0.000000     0.000733    -0.002597     0.268051    -0.045974    -0.043381     0.089354
   25 Cu     2.507526    -0.001795     9.969441    -0.006619    -0.000000    -0.000279    -0.075044     0.075044    -0.000000    -0.000000     0.000733    -0.002597     0.268051    -0.045974    -0.043381     0.089354
   26 Cu     0.000000     4.312843     9.969441    -0.006619    -0.000000    -0.000279    -0.075044     0.075044    -0.000000    -0.000000     0.000733    -0.002597     0.268051    -0.045974    -0.043381     0.089355
   27 Cu     0.000000     1.436947    12.058234     0.006618     0.000000     0.000207    -0.017142     0.017144    -0.000000    -0.000000     0.000046    -0.005506     0.020262    -0.006130    -0.000624     0.006754
   28 Cu     2.507526     5.751585    12.058234     0.006618     0.000000     0.000204    -0.017142     0.017143    -0.000000    -0.000000     0.000046    -0.005506     0.020262    -0.006130    -0.000624     0.006754
   29 Cu     2.507526     2.877691    14.122365     0.006619    -0.000000    -0.000207     0.017152     0.017153    -0.000000    -0.000000     0.000046    -0.005506     0.020264    -0.006130    -0.000625     0.006755
   30 Cu     0.000000     7.192329    14.122365     0.006619    -0.000000    -0.000204     0.017152     0.017153    -0.000000    -0.000000     0.000046    -0.005506     0.020263    -0.006130    -0.000624     0.006755
   31 Cu     2.507526     0.001795    16.211158    -0.006619     0.000000     0.000279     0.075033     0.075034    -0.000000    -0.000000     0.000733    -0.002597     0.268051    -0.045974    -0.043381     0.089354
   32 Cu     0.000000     4.316433    16.211158    -0.006619     0.000000     0.000279     0.075033     0.075034    -0.000000    -0.000000     0.000733    -0.002597     0.268051    -0.045974    -0.043381     0.089354
 
The sperically averaged electron density of each atom fit to a function of the form exp(a - br) for r >=rmin_cloud_penetration
atom number,atomic symbol, x, y, z, a, b, Rsquared where a and b are in atomic units and Rsquared is the squared correlation coefficient
    1 Cu     0.000000    -0.001795     9.969441    -0.082765     1.691848     0.999834
    2 Cu     2.507526     4.312843     9.969441    -0.082766     1.691848     0.999834
    3 Cu     2.507526     1.436947    12.058234     0.228500     1.752330     0.999996
    4 Cu     0.000000     5.751585    12.058234     0.228500     1.752330     0.999996
    5 Cu     0.000000     2.877691    14.122365     0.228498     1.752330     0.999996
    6 Cu     2.507526     7.192329    14.122365     0.228498     1.752330     0.999996
    7 Cu     0.000000     0.001795    16.211158    -0.082766     1.691848     0.999834
    8 Cu     2.507526     4.316433    16.211158    -0.082766     1.691848     0.999834
    9 Cu     3.761290     2.155524     9.969441    -0.082765     1.691848     0.999834
   10 Cu     1.253763     6.470162     9.969441    -0.082765     1.691848     0.999834
   11 Cu     1.253763     3.594266    12.058234     0.228500     1.752330     0.999996
   12 Cu     3.761290     7.908904    12.058234     0.228500     1.752330     0.999996
   13 Cu     1.253763     0.720372    14.122365     0.228498     1.752330     0.999996
   14 Cu     3.761290     5.035010    14.122365     0.228498     1.752330     0.999996
   15 Cu     3.761290     2.159114    16.211158    -0.082766     1.691848     0.999834
   16 Cu     1.253763     6.473752    16.211158    -0.082766     1.691848     0.999834
   17 Cu     1.253763     2.155524     9.969441    -0.082765     1.691848     0.999834
   18 Cu     3.761290     6.470162     9.969441    -0.082765     1.691848     0.999834
   19 Cu     3.761290     3.594266    12.058234     0.228500     1.752330     0.999996
   20 Cu     1.253763     7.908904    12.058234     0.228500     1.752330     0.999996
   21 Cu     3.761290     0.720372    14.122365     0.228498     1.752330     0.999996
   22 Cu     1.253763     5.035010    14.122365     0.228498     1.752330     0.999996
   23 Cu     1.253763     2.159114    16.211158    -0.082766     1.691848     0.999834
   24 Cu     3.761290     6.473752    16.211158    -0.082766     1.691848     0.999834
   25 Cu     2.507526    -0.001795     9.969441    -0.082765     1.691848     0.999834
   26 Cu     0.000000     4.312843     9.969441    -0.082765     1.691848     0.999834
   27 Cu     0.000000     1.436947    12.058234     0.228501     1.752330     0.999996
   28 Cu     2.507526     5.751585    12.058234     0.228500     1.752330     0.999996
   29 Cu     2.507526     2.877691    14.122365     0.228498     1.752330     0.999996
   30 Cu     0.000000     7.192329    14.122365     0.228498     1.752330     0.999996
   31 Cu     2.507526     0.001795    16.211158    -0.082766     1.691848     0.999834
   32 Cu     0.000000     4.316433    16.211158    -0.082766     1.691848     0.999834
 
 2024/01/05  15:53:03
