   32
jmolscript: load "" {1 1 1} spacegroup "x,y,z" unitcell [{      5.676440     0.000000     0.000000 }, {      0.000000     9.746691     0.000000 }, {      0.000000     0.000000     0.000000 }]
Au     0.000000    -0.000292     9.843566    -0.017923
Au     2.838220     4.873053     9.843566    -0.017923
Au     2.838220     1.616001    12.340947     0.017923
Au     0.000000     6.489347    12.340947     0.017923
Au     0.000000     3.257344    14.752954     0.017923
Au     2.838220     8.130690    14.752954     0.017923
Au     0.000000     0.000292    17.250335    -0.017923
Au     2.838220     4.873638    17.250335    -0.017923
Au     4.257330     2.436380     9.843566    -0.017923
Au     1.419110     7.309726     9.843566    -0.017923
Au     1.419110     4.052674    12.340947     0.017923
Au     4.257330     8.926020    12.340947     0.017923
Au     1.419110     0.820671    14.752954     0.017923
Au     4.257330     5.694017    14.752954     0.017923
Au     4.257330     2.436965    17.250335    -0.017923
Au     1.419110     7.310311    17.250335    -0.017923
Au     1.419110     2.436380     9.843566    -0.017923
Au     4.257330     7.309726     9.843566    -0.017923
Au     4.257330     4.052674    12.340947     0.017923
Au     1.419110     8.926020    12.340947     0.017923
Au     4.257330     0.820671    14.752954     0.017923
Au     1.419110     5.694017    14.752954     0.017923
Au     1.419110     2.436965    17.250335    -0.017923
Au     4.257330     7.310311    17.250335    -0.017923
Au     2.838220    -0.000292     9.843566    -0.017923
Au     0.000000     4.873053     9.843566    -0.017923
Au     0.000000     1.616001    12.340947     0.017923
Au     2.838220     6.489347    12.340947     0.017924
Au     2.838220     3.257344    14.752954     0.017923
Au     0.000000     8.130690    14.752954     0.017923
Au     2.838220     0.000292    17.250335    -0.017923
Au     0.000000     4.873638    17.250335    -0.017923
 
 Chargemol version 3.5 September 26, 2017.
See ddec.sourceforge.net for latest version.
 
Computational parameters:
Number of radial integration shells =    100
Cutoff radius (pm) =    500
Error in the integrated total number of electrons before renormalization (e) =    4.4236E-05
Charge convergence tolerance =    1.0000E-05
Minimum radius for electron cloud penetration fitting (pm) =    200
Minimum decay exponent for electron density of buried atom tails =   1.7500
Maximum decay exponent for electron density of buried atom tails =  2.5000
Number of iterations to convergence =      7
 
The following XYZ coordinates are in angstroms. The atomic dipoles and quadrupoles are in atomic units.
atom number, atomic symbol, x, y, z, net_charge, dipole_x, dipole_y, dipole_z, dipole_mag, Qxy, Qxz, Qyz,Q(x^2-y^2), Q(3z^2 - R^2), three eigenvalues of traceless quadrupole moment tensor
    1 Au     0.000000    -0.000292     9.843566    -0.017923    -0.000000    -0.000376    -0.060814     0.060815    -0.000000    -0.000000     0.000653     0.001711     0.274262    -0.046569    -0.044855     0.091424
    2 Au     2.838220     4.873053     9.843566    -0.017923     0.000000    -0.000376    -0.060814     0.060815    -0.000000    -0.000000     0.000653     0.001711     0.274262    -0.046569    -0.044855     0.091424
    3 Au     2.838220     1.616001    12.340947     0.017923     0.000000     0.001245    -0.038502     0.038522    -0.000000    -0.000000     0.003118    -0.004916     0.095680    -0.018405    -0.013702     0.032107
    4 Au     0.000000     6.489347    12.340947     0.017923    -0.000000     0.001243    -0.038502     0.038522    -0.000000    -0.000000     0.003118    -0.004916     0.095680    -0.018405    -0.013702     0.032106
    5 Au     0.000000     3.257344    14.752954     0.017923     0.000000    -0.001245     0.038496     0.038516    -0.000000    -0.000000     0.003118    -0.004916     0.095678    -0.018404    -0.013702     0.032106
    6 Au     2.838220     8.130690    14.752954     0.017923     0.000000    -0.001243     0.038496     0.038516    -0.000000    -0.000000     0.003118    -0.004916     0.095678    -0.018404    -0.013701     0.032106
    7 Au     0.000000     0.000292    17.250335    -0.017923     0.000000     0.000376     0.060820     0.060822    -0.000000    -0.000000     0.000653     0.001711     0.274263    -0.046569    -0.044855     0.091424
    8 Au     2.838220     4.873638    17.250335    -0.017923     0.000000     0.000376     0.060820     0.060822    -0.000000    -0.000000     0.000653     0.001711     0.274263    -0.046569    -0.044855     0.091424
    9 Au     4.257330     2.436380     9.843566    -0.017923    -0.000000    -0.000376    -0.060814     0.060815    -0.000000    -0.000000     0.000653     0.001711     0.274262    -0.046569    -0.044855     0.091424
   10 Au     1.419110     7.309726     9.843566    -0.017923    -0.000000    -0.000376    -0.060814     0.060815    -0.000000    -0.000000     0.000653     0.001711     0.274262    -0.046569    -0.044855     0.091424
   11 Au     1.419110     4.052674    12.340947     0.017923     0.000000     0.001245    -0.038502     0.038522    -0.000000    -0.000000     0.003118    -0.004916     0.095680    -0.018405    -0.013702     0.032106
   12 Au     4.257330     8.926020    12.340947     0.017923    -0.000000     0.001243    -0.038502     0.038522    -0.000000    -0.000000     0.003118    -0.004916     0.095680    -0.018405    -0.013702     0.032107
   13 Au     1.419110     0.820671    14.752954     0.017923     0.000000    -0.001244     0.038496     0.038516    -0.000000    -0.000000     0.003118    -0.004916     0.095678    -0.018404    -0.013701     0.032106
   14 Au     4.257330     5.694017    14.752954     0.017923    -0.000000    -0.001243     0.038496     0.038516    -0.000000    -0.000000     0.003118    -0.004916     0.095679    -0.018404    -0.013702     0.032106
   15 Au     4.257330     2.436965    17.250335    -0.017923     0.000000     0.000376     0.060820     0.060822    -0.000000    -0.000000     0.000653     0.001711     0.274263    -0.046569    -0.044855     0.091424
   16 Au     1.419110     7.310311    17.250335    -0.017923     0.000000     0.000376     0.060820     0.060822    -0.000000    -0.000000     0.000653     0.001711     0.274263    -0.046569    -0.044855     0.091424
   17 Au     1.419110     2.436380     9.843566    -0.017923     0.000000    -0.000376    -0.060814     0.060815     0.000000     0.000000     0.000653     0.001711     0.274262    -0.046569    -0.044855     0.091424
   18 Au     4.257330     7.309726     9.843566    -0.017923     0.000000    -0.000376    -0.060814     0.060815     0.000000     0.000000     0.000653     0.001711     0.274262    -0.046569    -0.044855     0.091424
   19 Au     4.257330     4.052674    12.340947     0.017923    -0.000000     0.001245    -0.038502     0.038522     0.000000     0.000000     0.003118    -0.004916     0.095680    -0.018405    -0.013702     0.032106
   20 Au     1.419110     8.926020    12.340947     0.017923     0.000000     0.001243    -0.038502     0.038522     0.000000     0.000000     0.003118    -0.004916     0.095680    -0.018405    -0.013702     0.032107
   21 Au     4.257330     0.820671    14.752954     0.017923    -0.000000    -0.001244     0.038496     0.038516     0.000000     0.000000     0.003118    -0.004916     0.095678    -0.018404    -0.013701     0.032106
   22 Au     1.419110     5.694017    14.752954     0.017923     0.000000    -0.001243     0.038496     0.038516     0.000000     0.000000     0.003118    -0.004916     0.095679    -0.018404    -0.013702     0.032106
   23 Au     1.419110     2.436965    17.250335    -0.017923    -0.000000     0.000376     0.060820     0.060822     0.000000     0.000000     0.000653     0.001711     0.274263    -0.046569    -0.044855     0.091424
   24 Au     4.257330     7.310311    17.250335    -0.017923    -0.000000     0.000376     0.060820     0.060822     0.000000     0.000000     0.000653     0.001711     0.274262    -0.046569    -0.044855     0.091424
   25 Au     2.838220    -0.000292     9.843566    -0.017923     0.000000    -0.000376    -0.060814     0.060815     0.000000     0.000000     0.000653     0.001711     0.274262    -0.046569    -0.044855     0.091424
   26 Au     0.000000     4.873053     9.843566    -0.017923     0.000000    -0.000376    -0.060814     0.060815     0.000000     0.000000     0.000653     0.001711     0.274262    -0.046569    -0.044855     0.091424
   27 Au     0.000000     1.616001    12.340947     0.017923     0.000000     0.001245    -0.038502     0.038522     0.000000     0.000000     0.003118    -0.004916     0.095680    -0.018405    -0.013702     0.032107
   28 Au     2.838220     6.489347    12.340947     0.017924     0.000000     0.001243    -0.038502     0.038522     0.000000     0.000000     0.003118    -0.004916     0.095680    -0.018405    -0.013702     0.032106
   29 Au     2.838220     3.257344    14.752954     0.017923     0.000000    -0.001245     0.038496     0.038516     0.000000     0.000000     0.003118    -0.004916     0.095678    -0.018404    -0.013702     0.032106
   30 Au     0.000000     8.130690    14.752954     0.017923    -0.000000    -0.001243     0.038496     0.038516     0.000000     0.000000     0.003118    -0.004916     0.095678    -0.018404    -0.013701     0.032106
   31 Au     2.838220     0.000292    17.250335    -0.017923     0.000000     0.000376     0.060820     0.060822     0.000000     0.000000     0.000653     0.001711     0.274262    -0.046569    -0.044855     0.091424
   32 Au     0.000000     4.873638    17.250335    -0.017923    -0.000000     0.000376     0.060820     0.060822     0.000000     0.000000     0.000653     0.001711     0.274262    -0.046569    -0.044855     0.091424
 
The sperically averaged electron density of each atom fit to a function of the form exp(a - br) for r >=rmin_cloud_penetration
atom number,atomic symbol, x, y, z, a, b, Rsquared where a and b are in atomic units and Rsquared is the squared correlation coefficient
    1 Au     0.000000    -0.000292     9.843566     0.552070     1.733272     0.999927
    2 Au     2.838220     4.873053     9.843566     0.552070     1.733272     0.999927
    3 Au     2.838220     1.616001    12.340947     0.656303     1.752659     0.999997
    4 Au     0.000000     6.489347    12.340947     0.656303     1.752659     0.999997
    5 Au     0.000000     3.257344    14.752954     0.656305     1.752659     0.999997
    6 Au     2.838220     8.130690    14.752954     0.656305     1.752659     0.999997
    7 Au     0.000000     0.000292    17.250335     0.552071     1.733272     0.999927
    8 Au     2.838220     4.873638    17.250335     0.552071     1.733272     0.999927
    9 Au     4.257330     2.436380     9.843566     0.552070     1.733272     0.999927
   10 Au     1.419110     7.309726     9.843566     0.552070     1.733272     0.999927
   11 Au     1.419110     4.052674    12.340947     0.656303     1.752659     0.999997
   12 Au     4.257330     8.926020    12.340947     0.656303     1.752659     0.999997
   13 Au     1.419110     0.820671    14.752954     0.656304     1.752659     0.999997
   14 Au     4.257330     5.694017    14.752954     0.656305     1.752659     0.999997
   15 Au     4.257330     2.436965    17.250335     0.552071     1.733272     0.999927
   16 Au     1.419110     7.310311    17.250335     0.552071     1.733272     0.999927
   17 Au     1.419110     2.436380     9.843566     0.552070     1.733272     0.999927
   18 Au     4.257330     7.309726     9.843566     0.552070     1.733272     0.999927
   19 Au     4.257330     4.052674    12.340947     0.656303     1.752659     0.999997
   20 Au     1.419110     8.926020    12.340947     0.656303     1.752659     0.999997
   21 Au     4.257330     0.820671    14.752954     0.656304     1.752659     0.999997
   22 Au     1.419110     5.694017    14.752954     0.656305     1.752659     0.999997
   23 Au     1.419110     2.436965    17.250335     0.552071     1.733272     0.999927
   24 Au     4.257330     7.310311    17.250335     0.552071     1.733272     0.999927
   25 Au     2.838220    -0.000292     9.843566     0.552070     1.733272     0.999927
   26 Au     0.000000     4.873053     9.843566     0.552070     1.733272     0.999927
   27 Au     0.000000     1.616001    12.340947     0.656303     1.752659     0.999997
   28 Au     2.838220     6.489347    12.340947     0.656303     1.752659     0.999997
   29 Au     2.838220     3.257344    14.752954     0.656305     1.752659     0.999997
   30 Au     0.000000     8.130690    14.752954     0.656304     1.752659     0.999997
   31 Au     2.838220     0.000292    17.250335     0.552071     1.733272     0.999927
   32 Au     0.000000     4.873638    17.250335     0.552071     1.733272     0.999927
 
 2024/01/05  15:55:46
