   58
jmolscript: load "" {1 1 1} spacegroup "x,y,z" unitcell [{     12.452312     0.000000     0.000000 }, {      0.000000    12.631498     0.000000 }, {      0.000000     0.000000    20.000000 }]
C      1.251445     2.096046     9.898660    -0.018554
C     -0.005006     0.003789     9.966360    -0.003421
C      1.248382     0.689086     9.952360     0.002384
C      0.013038     2.794138     9.858960     0.031819
C      3.737985     2.135658     9.995340    -0.039017
C      2.502529     0.005432     9.982500    -0.001501
C      3.748856     0.712202    10.010060     0.009152
C      2.485369     2.798837     9.907700     0.025275
C      6.204091     2.175220    10.137740    -0.100630
C      4.990986     0.011937    10.048960    -0.009765
C      6.222918     0.743730    10.091180     0.013518
C      4.957801     2.888432    10.077720     0.182349
C      8.719134     2.195771    10.104240    -0.105010
C      7.470030     0.019213    10.097080    -0.012579
C      8.710716     0.756589    10.069880     0.009799
C      7.448425     2.917788    10.262260     0.262389
C     11.214577     2.118656     9.925860    -0.040050
C      9.943682     0.013617    10.015240    -0.008266
C     11.197268     0.702248     9.972920     0.009633
C      9.994051     2.876634     9.970480     0.190373
C      1.256251     6.315661     9.773060    -0.015693
C      0.037245     4.204710     9.785760    -0.032207
C      1.255953     4.911783     9.774660    -0.012576
C      0.037556     7.022683     9.783380    -0.029896
C      3.688437     6.324263     9.938040     0.100547
C      2.476566     4.208588     9.851580    -0.021896
C      3.688288     4.904015     9.938860     0.101547
C      2.476765     7.019374     9.848980    -0.021018
C     11.264972     6.339054     9.786480     0.116729
C     11.264835     4.888680     9.787980     0.116871
C      1.248556    10.538812     9.952640     0.002767
C      0.013212     8.433495     9.856480     0.032791
C      1.251383     9.131727     9.898020    -0.020562
C     -0.005006    11.224059     9.966600    -0.001047
C      3.749254    10.515760    10.010440     0.010749
C      2.485432     8.429138     9.906120     0.026357
C      3.738271     9.092165     9.994940    -0.039755
C      2.502778    11.222518     9.982880    -0.001781
C      6.223006    10.484573    10.091220     0.011248
C      4.958137     8.339227    10.077600     0.180940
C      6.204252     9.053020    10.137060    -0.098810
C      4.991136    11.216417    10.049060    -0.008431
C      8.710704    10.471815    10.069160     0.009450
C      7.448736     8.310806    10.260840     0.264190
C      8.719420     9.032329    10.101800    -0.107687
C      7.470055    11.209381    10.096800    -0.009732
C     11.197131    10.525840     9.972060     0.009123
C      9.994114     8.351214     9.967360     0.191675
C     11.214702     9.109445     9.923280    -0.040437
C      9.943557    11.214812    10.014500    -0.009167
N      4.897569     4.274461    10.084300    -0.294599
N      4.897831     6.953299    10.083960    -0.294257
N      7.402015     4.212264    10.539060    -0.617232
N      7.402277     7.016039    10.537520    -0.618515
N     10.090370     4.232916     9.880020    -0.327776
N     10.090432     6.994945     9.877140    -0.329355
Fe     6.231809     5.613918    10.389940     0.684201
Zn     8.695375     5.614006    10.164940     0.695345
 
 Chargemol version 3.5 September 26, 2017.
See ddec.sourceforge.net for latest version.
 
Computational parameters:
Number of radial integration shells =    100
Cutoff radius (pm) =    500
Error in the integrated total number of electrons before renormalization (e) =    2.7533E-04
Charge convergence tolerance =    1.0000E-05
Minimum radius for electron cloud penetration fitting (pm) =    200
Minimum decay exponent for electron density of buried atom tails =   1.7500
Maximum decay exponent for electron density of buried atom tails =  2.5000
Number of iterations to convergence =      7
 
The following XYZ coordinates are in angstroms. The atomic dipoles and quadrupoles are in atomic units.
atom number, atomic symbol, x, y, z, net_charge, dipole_x, dipole_y, dipole_z, dipole_mag, Qxy, Qxz, Qyz,Q(x^2-y^2), Q(3z^2 - R^2), three eigenvalues of traceless quadrupole moment tensor
    1 C      1.251445     2.096046     9.898660    -0.018554     0.000598     0.004801    -0.000183     0.004841    -0.000182    -0.000729    -0.000421     0.000423    -0.000014    -0.000910     0.000049     0.000862
    2 C     -0.005006     0.003789     9.966360    -0.003421    -0.001523     0.007633    -0.000229     0.007787     0.001270    -0.000005    -0.001393    -0.002712     0.024236    -0.005916    -0.002342     0.008258
    3 C      1.248382     0.689086     9.952360     0.002384    -0.000593    -0.008848     0.000582     0.008887    -0.000209     0.000770     0.003221    -0.005681     0.015773    -0.005564    -0.001291     0.006855
    4 C      0.013038     2.794138     9.858960     0.031819    -0.002961    -0.002356     0.000507     0.003817     0.001337     0.000509     0.003945    -0.013040     0.033569    -0.012251    -0.000314     0.012565
    5 C      3.737985     2.135658     9.995340    -0.039017    -0.009445    -0.007117    -0.000044     0.011826    -0.006819    -0.003737    -0.000509    -0.018652     0.029368    -0.016963     0.006539     0.010423
    6 C      2.502529     0.005432     9.982500    -0.001501     0.001882     0.006455     0.000004     0.006724    -0.001196    -0.000483    -0.001787    -0.003485     0.018999    -0.005368    -0.001361     0.006729
    7 C      3.748856     0.712202    10.010060     0.009152    -0.002505     0.001555    -0.000002     0.002948     0.000212     0.000947     0.000386    -0.009697     0.016694    -0.007702     0.002025     0.005677
    8 C      2.485369     2.798837     9.907700     0.025275     0.000437    -0.003965     0.000727     0.004055    -0.002384     0.000069     0.003410    -0.014681     0.027125    -0.012256     0.001673     0.010583
    9 C      6.204091     2.175220    10.137740    -0.100630     0.000249    -0.004177     0.009668     0.010535     0.002309    -0.000487     0.010847    -0.038103    -0.018882    -0.016232    -0.009725     0.025957
   10 C      4.990986     0.011937    10.048960    -0.009765     0.002988    -0.002632     0.000868     0.004075    -0.003833    -0.000691    -0.000140     0.001281     0.018132    -0.006932     0.000828     0.006104
   11 C      6.222918     0.743730    10.091180     0.013518     0.004194     0.004031     0.002031     0.006161     0.004453     0.000962     0.000875    -0.000999     0.001749    -0.004776     0.000170     0.004606
   12 C      4.957801     2.888432    10.077720     0.182349     0.008868     0.064316     0.004008     0.065048     0.003180     0.005963     0.000089    -0.020711     0.001455    -0.013549     0.002849     0.010700
   13 C      8.719134     2.195771    10.104240    -0.105010    -0.003625     0.001058     0.007336     0.008251     0.000330     0.003311     0.008238    -0.035942    -0.049372    -0.019087    -0.008671     0.027758
   14 C      7.470030     0.019213    10.097080    -0.012579     0.000923     0.000101     0.000269     0.000967    -0.001135    -0.000234     0.004290     0.006678    -0.008291    -0.006700     0.001631     0.005069
   15 C      8.710716     0.756589    10.069880     0.009799    -0.002361     0.003638     0.001490     0.004585    -0.003831    -0.001981     0.000335     0.005567    -0.005605    -0.004006    -0.002124     0.006131
   16 C      7.448425     2.917788    10.262260     0.262389     0.001588     0.051067     0.023827     0.056375    -0.000098    -0.001460    -0.013199    -0.004099     0.088168    -0.017140    -0.016088     0.033228
   17 C     11.214577     2.118656     9.925860    -0.040050     0.011919    -0.004578    -0.000714     0.012788     0.005127     0.002981    -0.002168    -0.017424     0.041217    -0.017361     0.003087     0.014274
   18 C      9.943682     0.013617    10.015240    -0.008266    -0.004575    -0.001121     0.001016     0.004819     0.005120     0.000630    -0.000712     0.002432     0.007650    -0.006636     0.002646     0.003990
   19 C     11.197268     0.702248     9.972920     0.009633     0.001751    -0.001687     0.000615     0.002509    -0.000925    -0.001377     0.002277    -0.011928     0.015160    -0.008670     0.001829     0.006841
   20 C      9.994051     2.876634     9.970480     0.190373    -0.007113     0.056229    -0.000088     0.056677    -0.001402    -0.001897     0.006077    -0.024725     0.030360    -0.017594     0.002474     0.015120
   21 C      1.256251     6.315661     9.773060    -0.015693    -0.000247     0.008487     0.002551     0.008866     0.000255     0.000434    -0.000964     0.001023    -0.019332    -0.006565     0.002767     0.003798
   22 C      0.037245     4.204710     9.785760    -0.032207     0.013045    -0.009898     0.002238     0.016527     0.005022    -0.001127     0.002762     0.006243     0.044571    -0.013649    -0.001523     0.015172
   23 C      1.255953     4.911783     9.774660    -0.012576    -0.000243    -0.008507     0.002229     0.008798     0.000032     0.000740     0.000976     0.002574    -0.020608    -0.007020     0.002247     0.004772
   24 C      0.037556     7.022683     9.783380    -0.029896     0.013258     0.009362     0.001849     0.016335    -0.004706    -0.000972    -0.002404     0.006202     0.042934    -0.013034    -0.001525     0.014559
   25 C      3.688437     6.324263     9.938040     0.100547     0.049900     0.044570     0.005264     0.067113     0.017528    -0.005692    -0.000128     0.001606     0.046530    -0.025664     0.007661     0.018003
   26 C      2.476566     4.208588     9.851580    -0.021896    -0.012336    -0.009712     0.000583     0.015711    -0.007195    -0.002567     0.001335     0.006290     0.042751    -0.014980     0.000140     0.014840
   27 C      3.688288     4.904015     9.938860     0.101547     0.049468    -0.044553     0.005729     0.066820    -0.017628    -0.005234     0.000587     0.002807     0.046450    -0.025665     0.007710     0.017955
   28 C      2.476765     7.019374     9.848980    -0.021018    -0.012488     0.008015     0.000250     0.014841     0.006785    -0.002229    -0.001336     0.006990     0.042601    -0.014732     0.000055     0.014678
   29 C     11.264972     6.339054     9.786480     0.116729    -0.046745     0.037201     0.002483     0.059792    -0.014907     0.004453    -0.001558     0.000488     0.079687    -0.028265     0.000922     0.027343
   30 C     11.264835     4.888680     9.787980     0.116871    -0.045901    -0.037365     0.001885     0.059217     0.014108     0.004473     0.001283     0.000636     0.079525    -0.027458     0.000224     0.027234
   31 C      1.248556    10.538812     9.952640     0.002767    -0.000162     0.008070     0.000021     0.008071    -0.000042     0.000546    -0.002712    -0.007514     0.014394    -0.006184    -0.000125     0.006309
   32 C      0.013212     8.433495     9.856480     0.032791    -0.002288     0.002819     0.000515     0.003667    -0.001064     0.000228    -0.004153    -0.012530     0.030673    -0.011468    -0.000386     0.011853
   33 C      1.251383     9.131727     9.898020    -0.020562     0.001189    -0.004779     0.000408     0.004942     0.000109    -0.000739     0.000746    -0.000732     0.000816    -0.001142     0.000001     0.001141
   34 C     -0.005006    11.224059     9.966600    -0.001047    -0.001537    -0.007336    -0.000051     0.007496    -0.000415     0.000079     0.001776    -0.004364     0.021705    -0.005843    -0.001741     0.007585
   35 C      3.749254    10.515760    10.010440     0.010749    -0.002541    -0.001868     0.000472     0.003189    -0.000165     0.001000    -0.000604    -0.009991     0.014626    -0.007516     0.002410     0.005105
   36 C      2.485432     8.429138     9.906120     0.026357     0.000837     0.003809     0.000830     0.003987     0.002136     0.000376    -0.003640    -0.014463     0.026803    -0.012047     0.001412     0.010635
   37 C      3.738271     9.092165     9.994940    -0.039755    -0.009298     0.006625    -0.000604     0.011432     0.007210    -0.003841     0.000118    -0.017877     0.029298    -0.016871     0.006267     0.010604
   38 C      2.502778    11.222518     9.982880    -0.001781     0.001840    -0.005793    -0.000237     0.006083     0.001372    -0.000461     0.001026    -0.003571     0.017285    -0.005187    -0.000731     0.005918
   39 C      6.223006    10.484573    10.091220     0.011248     0.004112    -0.004100     0.001609     0.006026    -0.004466     0.001099    -0.000579    -0.000389     0.002207    -0.004866     0.000391     0.004475
   40 C      4.958137     8.339227    10.077600     0.180940     0.008304    -0.065169     0.003951     0.065815    -0.003034     0.005876    -0.000286    -0.020230     0.001923    -0.013283     0.002886     0.010397
   41 C      6.204252     9.053020    10.137060    -0.098810    -0.000321     0.004824     0.010100     0.011198    -0.001543    -0.000441    -0.010451    -0.036074    -0.019480    -0.014999    -0.009822     0.024821
   42 C      4.991136    11.216417    10.049060    -0.008431     0.003845     0.003303     0.000517     0.005095     0.003319    -0.000152    -0.000458     0.000622     0.014852    -0.005814     0.000816     0.004999
   43 C      8.710704    10.471815    10.069160     0.009450    -0.001973    -0.004491     0.001350     0.005088     0.004318    -0.001694    -0.000493     0.004014    -0.004101    -0.004176    -0.001668     0.005844
   44 C      7.448736     8.310806    10.260840     0.264190     0.001701    -0.051247     0.023752     0.056509    -0.000066    -0.001140     0.012860    -0.003049     0.085916    -0.016553    -0.015779     0.032331
   45 C      8.719420     9.032329    10.101800    -0.107687    -0.002879    -0.001114     0.007139     0.007778     0.000286     0.003783    -0.007883    -0.036503    -0.045526    -0.018463    -0.008844     0.027307
   46 C      7.470055    11.209381    10.096800    -0.009732     0.000889    -0.000165     0.000392     0.000986     0.000741    -0.000098    -0.004103     0.007588    -0.011668    -0.007109     0.001266     0.005842
   47 C     11.197131    10.525840     9.972060     0.009123     0.000860     0.001180     0.000884     0.001707     0.001351    -0.000944    -0.002647    -0.013251     0.015153    -0.009320     0.001902     0.007418
   48 C      9.994114     8.351214     9.967360     0.191675    -0.007731    -0.056554     0.000248     0.057081     0.000928    -0.002001    -0.006163    -0.024083     0.031000    -0.017363     0.002214     0.015149
   49 C     11.214702     9.109445     9.923280    -0.040437     0.011522     0.004561    -0.001047     0.012437    -0.005283     0.002862     0.001587    -0.015101     0.040784    -0.016356     0.002381     0.013975
   50 C      9.943557    11.214812    10.014500    -0.009167    -0.004538     0.000042     0.001419     0.004755    -0.004584     0.000772     0.001337     0.002632     0.008774    -0.006481     0.003044     0.003437
   51 N      4.897569     4.274461    10.084300    -0.294599    -0.072545    -0.068834    -0.007227     0.100265    -0.045770     0.010242    -0.000905     0.002398    -0.055641    -0.038683    -0.017235     0.055917
   52 N      4.897831     6.953299    10.083960    -0.294257    -0.072627     0.068614    -0.007372     0.100184     0.046066     0.009824     0.000517     0.003315    -0.054181    -0.039099    -0.016778     0.055877
   53 N      7.402015     4.212264    10.539060    -0.617232    -0.010822    -0.100848     0.009548     0.101876     0.003907    -0.013239    -0.015928     0.011335     0.094047    -0.025786    -0.013842     0.039627
   54 N      7.402277     7.016039    10.537520    -0.618515    -0.010697     0.099884     0.009841     0.100936    -0.003569    -0.013119     0.015732     0.013565     0.094476    -0.026776    -0.012774     0.039550
   55 N     10.090370     4.232916     9.880020    -0.327776     0.088370    -0.068327     0.003651     0.111764     0.044741    -0.012179     0.000247    -0.017106     0.008424    -0.048743     0.003222     0.045521
   56 N     10.090432     6.994945     9.877140    -0.329355     0.087506     0.068297     0.003188     0.111050    -0.045231    -0.012297    -0.000590    -0.017433     0.009412    -0.049498     0.003698     0.045801
   57 Fe     6.231809     5.613918    10.389940     0.684201     0.023812     0.000069     0.069500     0.073466     0.000100    -0.041620     0.000369     0.060263     0.470276    -0.108512    -0.056375     0.164886
   58 Zn     8.695375     5.614006    10.164940     0.695345    -0.010888     0.000119     0.038329     0.039846     0.000324     0.060877    -0.000129     0.061418     0.579386    -0.127276    -0.079449     0.206725
 
The sperically averaged electron density of each atom fit to a function of the form exp(a - br) for r >=rmin_cloud_penetration
atom number,atomic symbol, x, y, z, a, b, Rsquared where a and b are in atomic units and Rsquared is the squared correlation coefficient
    1 C      1.251445     2.096046     9.898660    -0.049056     1.982538     0.999605
    2 C     -0.005006     0.003789     9.966360    -0.037323     1.984661     0.999699
    3 C      1.248382     0.689086     9.952360    -0.008699     1.991626     0.999772
    4 C      0.013038     2.794138     9.858960    -0.087980     1.985559     0.999639
    5 C      3.737985     2.135658     9.995340    -0.192670     1.956945     0.999349
    6 C      2.502529     0.005432     9.982500    -0.029501     1.986170     0.999700
    7 C      3.748856     0.712202    10.010060     0.009678     1.994184     0.999579
    8 C      2.485369     2.798837     9.907700    -0.050772     1.991687     0.999712
    9 C      6.204091     2.175220    10.137740    -0.427517     1.890333     0.999334
   10 C      4.990986     0.011937    10.048960    -0.013327     1.981337     0.999715
   11 C      6.222918     0.743730    10.091180    -0.033287     1.982952     0.999434
   12 C      4.957801     2.888432    10.077720    -0.372080     1.939255     0.999322
   13 C      8.719134     2.195771    10.104240    -0.394313     1.895700     0.999257
   14 C      7.470030     0.019213    10.097080    -0.039384     1.970773     0.999684
   15 C      8.710716     0.756589    10.069880    -0.000014     1.987105     0.999490
   16 C      7.448425     2.917788    10.262260    -0.282434     1.944178     0.999374
   17 C     11.214577     2.118656     9.925860    -0.174016     1.959341     0.999442
   18 C      9.943682     0.013617    10.015240    -0.000151     1.982857     0.999735
   19 C     11.197268     0.702248     9.972920    -0.004385     1.991020     0.999622
   20 C      9.994051     2.876634     9.970480    -0.340847     1.946438     0.999314
   21 C      1.256251     6.315661     9.773060     0.040580     2.000477     0.999456
   22 C      0.037245     4.204710     9.785760    -0.110696     1.975284     0.999557
   23 C      1.255953     4.911783     9.774660     0.039712     2.000320     0.999459
   24 C      0.037556     7.022683     9.783380    -0.089194     1.980356     0.999589
   25 C      3.688437     6.324263     9.938040    -0.346080     1.948036     0.999009
   26 C      2.476566     4.208588     9.851580    -0.090544     1.982106     0.999547
   27 C      3.688288     4.904015     9.938860    -0.348653     1.947778     0.998997
   28 C      2.476765     7.019374     9.848980    -0.093033     1.981280     0.999546
   29 C     11.264972     6.339054     9.786480    -0.350323     1.952264     0.998983
   30 C     11.264835     4.888680     9.787980    -0.351356     1.952053     0.998987
   31 C      1.248556    10.538812     9.952640    -0.010185     1.991322     0.999772
   32 C      0.013212     8.433495     9.856480    -0.057269     1.991501     0.999697
   33 C      1.251383     9.131727     9.898020    -0.054411     1.980952     0.999599
   34 C     -0.005006    11.224059     9.966600    -0.041839     1.982610     0.999705
   35 C      3.749254    10.515760    10.010440     0.010721     1.994246     0.999578
   36 C      2.485432     8.429138     9.906120    -0.055332     1.991127     0.999717
   37 C      3.738271     9.092165     9.994940    -0.193001     1.956583     0.999348
   38 C      2.502778    11.222518     9.982880    -0.020430     1.987914     0.999714
   39 C      6.223006    10.484573    10.091220    -0.032194     1.982644     0.999430
   40 C      4.958137     8.339227    10.077600    -0.371273     1.938956     0.999321
   41 C      6.204252     9.053020    10.137060    -0.418384     1.893480     0.999342
   42 C      4.991136    11.216417    10.049060    -0.004539     1.984178     0.999715
   43 C      8.710704    10.471815    10.069160     0.005706     1.988122     0.999505
   44 C      7.448736     8.310806    10.260840    -0.262098     1.948188     0.999440
   45 C      8.719420     9.032329    10.101800    -0.387835     1.896097     0.999290
   46 C      7.470055    11.209381    10.096800    -0.026225     1.974459     0.999692
   47 C     11.197131    10.525840     9.972060    -0.005915     1.990866     0.999622
   48 C      9.994114     8.351214     9.967360    -0.356151     1.943905     0.999282
   49 C     11.214702     9.109445     9.923280    -0.181854     1.957351     0.999431
   50 C      9.943557    11.214812    10.014500    -0.000911     1.982984     0.999731
   51 N      4.897569     4.274461    10.084300    -0.709129     1.845657     0.999503
   52 N      4.897831     6.953299    10.083960    -0.713229     1.844672     0.999513
   53 N      7.402015     4.212264    10.539060    -0.445181     1.820265     0.999797
   54 N      7.402277     7.016039    10.537520    -0.444930     1.820087     0.999798
   55 N     10.090370     4.232916     9.880020    -0.717027     1.841126     0.999626
   56 N     10.090432     6.994945     9.877140    -0.714899     1.840836     0.999629
   57 Fe     6.231809     5.613918    10.389940     0.036769     1.817253     0.999896
   58 Zn     8.695375     5.614006    10.164940    -0.153721     1.822027     0.999896
 
 2024/01/18  10:48:05
