   72
jmolscript: load "" {1 1 1} spacegroup "x,y,z" unitcell [{      7.871104     0.000000     0.000000 }, {      0.000000     9.958673     0.000000 }, {      0.000000     0.000000     0.000000 }]
Fe     0.000000     0.001125     6.118273     1.549467
Fe     3.935552     0.001125     6.118273     1.549467
Fe     1.967776     4.898592     4.291783     1.486158
Fe     5.903328     4.898592     4.291783     1.486157
Fe     0.000000     0.006752    10.110021     1.598171
Fe     3.935552     0.006752    10.110021     1.598171
Fe     1.967776     4.981059     8.230499     1.589817
Fe     5.903328     4.981059     8.230499     1.589817
Fe     0.000000     9.909308    13.984741     1.496108
Fe     3.935552     9.909308    13.984741     1.496105
Fe     1.967776     4.991954    12.193927     1.561745
Fe     5.903328     4.991954    12.193927     1.561746
Sb     1.967776     2.539920     6.066811     1.974501
Sb     5.903328     2.539920     6.066811     1.974501
Sb     0.000000     7.449565     4.329552     1.888590
Sb     3.935552     7.449565     4.329552     1.888589
Sb     1.967776     2.477260    10.063243     2.042373
Sb     5.903328     2.477260    10.063243     2.042373
Sb     0.000000     7.467332     8.283531     2.039728
Sb     3.935552     7.467332     8.283531     2.039728
Sb     1.967776     2.474999    13.974713     1.895039
Sb     5.903328     2.474999    13.974713     1.895039
Sb     0.000000     7.523748    12.262606     1.980648
Sb     3.935552     7.523748    12.262606     1.980649
O      1.967776     0.535657     6.115766    -0.915824
O      5.903328     0.535657     6.115766    -0.915824
O      0.000000     2.102306     6.171359    -0.863854
O      3.935552     2.102306     6.171359    -0.863854
O      1.967776     4.569089     6.227146    -0.943686
O      5.903328     4.569089     6.227146    -0.943686
O      1.967776     3.026869     4.141586    -0.794522
O      5.903328     3.026869     4.141586    -0.794523
O      0.000000     5.487109     3.977450    -0.883446
O      3.935552     5.487109     3.977450    -0.883446
O      1.967776     7.036211     3.958607    -0.866688
O      5.903328     7.036211     3.958607    -0.866688
O      0.000000     9.343396     4.149548    -0.764635
O      3.935552     9.343396     4.149548    -0.764636
O      0.000000     7.764329     6.255108    -0.889629
O      3.935552     7.764329     6.255108    -0.889629
O      1.967776     0.502813    10.087678    -0.930701
O      5.903328     0.502813    10.087678    -0.930701
O      0.000000     2.063407    10.095943    -0.895545
O      3.935552     2.063407    10.095943    -0.895545
O      1.967776     4.448868    10.183053    -0.916936
O      5.903328     4.448868    10.183053    -0.916936
O      1.967776     2.923289     8.116144    -0.875651
O      5.903328     2.923289     8.116144    -0.875651
O      0.000000     5.491690     8.268406    -0.928254
O      3.935552     5.491690     8.268406    -0.928254
O      1.967776     7.069941     8.253971    -0.893914
O      5.903328     7.069941     8.253971    -0.893914
O      0.000000     9.430246     8.149561    -0.914010
O      3.935552     9.430246     8.149561    -0.914010
O      0.000000     7.920840    10.233798    -0.876470
O      3.935552     7.920840    10.233798    -0.876470
O      1.967776     0.516098    14.279514    -0.885665
O      5.903328     0.516098    14.279514    -0.885665
O      0.000000     2.048489    14.333124    -0.872772
O      3.935552     2.048489    14.333124    -0.872772
O      1.967776     4.368432    14.138271    -0.769359
O      5.903328     4.368432    14.138271    -0.769360
O      1.967776     2.818036    12.064558    -0.890347
O      5.903328     2.818036    12.064558    -0.890347
O      0.000000     5.520082    12.210980    -0.918013
O      3.935552     5.520082    12.210980    -0.918013
O      1.967776     7.063657    12.175084    -0.867039
O      5.903328     7.063657    12.175084    -0.867039
O      0.000000     9.554610    12.085743    -0.947824
O      3.935552     9.554610    12.085743    -0.947824
O      0.000000     8.066346    14.167362    -0.797556
O      3.935552     8.066346    14.167362    -0.797557
 
 Chargemol version 3.5 September 26, 2017.
See ddec.sourceforge.net for latest version.
 
Computational parameters:
Number of radial integration shells =    100
Cutoff radius (pm) =    500
Error in the integrated total number of electrons before renormalization (e) =    6.0901E-04
Charge convergence tolerance =    1.0000E-05
Minimum radius for electron cloud penetration fitting (pm) =    200
Minimum decay exponent for electron density of buried atom tails =   1.7500
Maximum decay exponent for electron density of buried atom tails =  2.5000
Number of iterations to convergence =      7
 
The following XYZ coordinates are in angstroms. The atomic dipoles and quadrupoles are in atomic units.
atom number, atomic symbol, x, y, z, net_charge, dipole_x, dipole_y, dipole_z, dipole_mag, Qxy, Qxz, Qyz,Q(x^2-y^2), Q(3z^2 - R^2), three eigenvalues of traceless quadrupole moment tensor
    1 Fe     0.000000     0.001125     6.118273     1.549467    -0.000000     0.018733     0.012776     0.022675     0.000000    -0.000000    -0.043236     0.038513     0.089170    -0.055940     0.004395     0.051546
    2 Fe     3.935552     0.001125     6.118273     1.549467     0.000000     0.018733     0.012776     0.022675    -0.000000     0.000000    -0.043236     0.038513     0.089170    -0.055940     0.004395     0.051546
    3 Fe     1.967776     4.898592     4.291783     1.486158    -0.000000     0.009564    -0.059723     0.060484     0.000000     0.000000     0.041792     0.094104     0.397714    -0.120246    -0.019233     0.139480
    4 Fe     5.903328     4.898592     4.291783     1.486157     0.000000     0.009564    -0.059723     0.060484    -0.000000    -0.000000     0.041792     0.094105     0.397714    -0.120246    -0.019233     0.139480
    5 Fe     0.000000     0.006752    10.110021     1.598171     0.000000    -0.000518     0.008050     0.008067    -0.000000     0.000000    -0.017009     0.047733     0.053453    -0.037962     0.014958     0.023004
    6 Fe     3.935552     0.006752    10.110021     1.598171    -0.000000    -0.000518     0.008050     0.008067     0.000000    -0.000000    -0.017009     0.047733     0.053453    -0.037962     0.014958     0.023004
    7 Fe     1.967776     4.981059     8.230499     1.589817    -0.000000    -0.000010    -0.007071     0.007071     0.000000     0.000000     0.016779     0.051741     0.054894    -0.039860     0.016722     0.023139
    8 Fe     5.903328     4.981059     8.230499     1.589817     0.000000    -0.000010    -0.007071     0.007071    -0.000000    -0.000000     0.016779     0.051741     0.054894    -0.039860     0.016722     0.023139
    9 Fe     0.000000     9.909308    13.984741     1.496108     0.000000     0.007599     0.054438     0.054966     0.000000     0.000000    -0.039682     0.094779     0.357226    -0.113692    -0.012148     0.125840
   10 Fe     3.935552     9.909308    13.984741     1.496105    -0.000000     0.007599     0.054438     0.054966    -0.000000    -0.000000    -0.039682     0.094779     0.357227    -0.113693    -0.012148     0.125841
   11 Fe     1.967776     4.991954    12.193927     1.561745     0.000000     0.016702    -0.010788     0.019883    -0.000000    -0.000000     0.041919     0.029452     0.079535    -0.050731     0.001470     0.049261
   12 Fe     5.903328     4.991954    12.193927     1.561746    -0.000000     0.016702    -0.010788     0.019883     0.000000     0.000000     0.041919     0.029452     0.079535    -0.050731     0.001470     0.049261
   13 Sb     1.967776     2.539920     6.066811     1.974501     0.000000    -0.040796     0.043089     0.059338    -0.000000    -0.000000     0.078655     0.088909     0.112258    -0.106231     0.025745     0.080487
   14 Sb     5.903328     2.539920     6.066811     1.974501    -0.000000    -0.040796     0.043089     0.059338     0.000000     0.000000     0.078655     0.088909     0.112257    -0.106231     0.025745     0.080486
   15 Sb     0.000000     7.449565     4.329552     1.888590     0.000000    -0.037353    -0.054003     0.065663     0.000000    -0.000000    -0.055243     0.154081     0.631481    -0.189909    -0.028206     0.218115
   16 Sb     3.935552     7.449565     4.329552     1.888589    -0.000000    -0.037353    -0.054003     0.065663    -0.000000     0.000000    -0.055243     0.154081     0.631481    -0.189909    -0.028206     0.218115
   17 Sb     1.967776     2.477260    10.063243     2.042373    -0.000000     0.000214     0.018742     0.018743     0.000000    -0.000000     0.029692     0.112719     0.128625    -0.084707     0.034922     0.049785
   18 Sb     5.903328     2.477260    10.063243     2.042373     0.000000     0.000214     0.018742     0.018743    -0.000000     0.000000     0.029692     0.112719     0.128625    -0.084707     0.034922     0.049785
   19 Sb     0.000000     7.467332     8.283531     2.039728     0.000000    -0.002913    -0.019457     0.019674    -0.000000    -0.000000    -0.026802     0.111554     0.134722    -0.083812     0.033323     0.050488
   20 Sb     3.935552     7.467332     8.283531     2.039728    -0.000000    -0.002913    -0.019457     0.019674     0.000000     0.000000    -0.026802     0.111554     0.134722    -0.083812     0.033323     0.050488
   21 Sb     1.967776     2.474999    13.974713     1.895039    -0.000000    -0.034699     0.044246     0.056229    -0.000000    -0.000000     0.048125     0.155542     0.612097    -0.185729    -0.024245     0.209974
   22 Sb     5.903328     2.474999    13.974713     1.895039     0.000000    -0.034699     0.044246     0.056229     0.000000     0.000000     0.048125     0.155542     0.612097    -0.185729    -0.024245     0.209974
   23 Sb     0.000000     7.523748    12.262606     1.980648    -0.000000    -0.035693    -0.041507     0.054744     0.000000    -0.000000    -0.082919     0.084820     0.111995    -0.108291     0.023744     0.084547
   24 Sb     3.935552     7.523748    12.262606     1.980649     0.000000    -0.035693    -0.041507     0.054744    -0.000000     0.000000    -0.082919     0.084820     0.111995    -0.108291     0.023744     0.084546
   25 O      1.967776     0.535657     6.115766    -0.915824    -0.000000    -0.060759     0.005389     0.060997     0.000000    -0.000000    -0.012651    -0.105618     0.071777    -0.064772     0.017166     0.047606
   26 O      5.903328     0.535657     6.115766    -0.915824     0.000000    -0.060759     0.005389     0.060997    -0.000000     0.000000    -0.012651    -0.105618     0.071777    -0.064772     0.017166     0.047606
   27 O      0.000000     2.102306     6.171359    -0.863854     0.000000     0.038467     0.017440     0.042236     0.000000    -0.000000     0.010611     0.000905     0.026222    -0.010634    -0.003918     0.014552
   28 O      3.935552     2.102306     6.171359    -0.863854    -0.000000     0.038467     0.017440     0.042236    -0.000000     0.000000     0.010611     0.000905     0.026222    -0.010634    -0.003918     0.014552
   29 O      1.967776     4.569089     6.227146    -0.943686    -0.000000     0.077797     0.035577     0.085546     0.000000     0.000000    -0.019560    -0.021723    -0.209472    -0.073044     0.024050     0.048994
   30 O      5.903328     4.569089     6.227146    -0.943686     0.000000     0.077797     0.035577     0.085546    -0.000000    -0.000000    -0.019560    -0.021723    -0.209472    -0.073044     0.024050     0.048994
   31 O      1.967776     3.026869     4.141586    -0.794522    -0.000000    -0.132347    -0.152415     0.201856    -0.000000    -0.000000    -0.012126    -0.020391     0.075272    -0.022741    -0.006941     0.029681
   32 O      5.903328     3.026869     4.141586    -0.794523     0.000000    -0.132347    -0.152415     0.201856     0.000000     0.000000    -0.012126    -0.020391     0.075272    -0.022741    -0.006941     0.029681
   33 O      0.000000     5.487109     3.977450    -0.883446    -0.000000    -0.079523    -0.045935     0.091836     0.000000     0.000000     0.013963    -0.127667    -0.012463    -0.061757    -0.006834     0.068591
   34 O      3.935552     5.487109     3.977450    -0.883446     0.000000    -0.079523    -0.045935     0.091836    -0.000000    -0.000000     0.013963    -0.127667    -0.012463    -0.061757    -0.006834     0.068591
   35 O      1.967776     7.036211     3.958607    -0.866688     0.000000     0.044784    -0.047989     0.065640     0.000000    -0.000000     0.003515     0.018238     0.005454    -0.010992     0.002782     0.008210
   36 O      5.903328     7.036211     3.958607    -0.866688    -0.000000     0.044784    -0.047989     0.065640    -0.000000     0.000000     0.003515     0.018238     0.005454    -0.010992     0.002782     0.008210
   37 O      0.000000     9.343396     4.149548    -0.764635     0.000000     0.172430    -0.125666     0.213364    -0.000000    -0.000000    -0.013922    -0.168409    -0.197675    -0.066944    -0.051259     0.118203
   38 O      3.935552     9.343396     4.149548    -0.764636    -0.000000     0.172430    -0.125666     0.213364     0.000000     0.000000    -0.013922    -0.168409    -0.197675    -0.066944    -0.051259     0.118203
   39 O      0.000000     7.764329     6.255108    -0.889629     0.000000    -0.050405     0.031469     0.059422     0.000000    -0.000000     0.022401     0.014998    -0.028836    -0.028819     0.012305     0.016514
   40 O      3.935552     7.764329     6.255108    -0.889629    -0.000000    -0.050405     0.031468     0.059422    -0.000000     0.000000     0.022401     0.014998    -0.028836    -0.028819     0.012305     0.016514
   41 O      1.967776     0.502813    10.087678    -0.930701     0.000000    -0.090100    -0.000732     0.090103     0.000000    -0.000000    -0.006341    -0.137362     0.063618    -0.079284     0.020146     0.059138
   42 O      5.903328     0.502813    10.087678    -0.930701    -0.000000    -0.090100    -0.000732     0.090103    -0.000000     0.000000    -0.006341    -0.137362     0.063618    -0.079284     0.020146     0.059138
   43 O      0.000000     2.063407    10.095943    -0.895545    -0.000000     0.053068     0.000766     0.053073    -0.000000     0.000000     0.004767    -0.017227     0.048388    -0.016678    -0.000794     0.017472
   44 O      3.935552     2.063407    10.095943    -0.895545     0.000000     0.053068     0.000766     0.053073     0.000000    -0.000000     0.004767    -0.017227     0.048388    -0.016678    -0.000794     0.017472
   45 O      1.967776     4.448868    10.183053    -0.916936     0.000000     0.092196     0.022329     0.094862    -0.000000     0.000000    -0.004421    -0.041199    -0.232087    -0.077505     0.018082     0.059423
   46 O      5.903328     4.448868    10.183053    -0.916936    -0.000000     0.092196     0.022329     0.094862     0.000000    -0.000000    -0.004421    -0.041199    -0.232087    -0.077505     0.018082     0.059423
   47 O      1.967776     2.923289     8.116144    -0.875651    -0.000000    -0.062151    -0.032552     0.070160     0.000000     0.000000    -0.009156     0.011258    -0.041252    -0.018087     0.005582     0.012504
   48 O      5.903328     2.923289     8.116144    -0.875651     0.000000    -0.062151    -0.032552     0.070160    -0.000000    -0.000000    -0.009156     0.011258    -0.041252    -0.018087     0.005582     0.012504
   49 O      0.000000     5.491690     8.268406    -0.928254     0.000000    -0.088062     0.006275     0.088285    -0.000000    -0.000000     0.003857    -0.133911     0.064822    -0.077759     0.021182     0.056577
   50 O      3.935552     5.491690     8.268406    -0.928254    -0.000000    -0.088062     0.006275     0.088285     0.000000     0.000000     0.003857    -0.133911     0.064822    -0.077759     0.021182     0.056577
   51 O      1.967776     7.069941     8.253971    -0.893914     0.000000     0.053048    -0.001423     0.053067     0.000000     0.000000    -0.003932    -0.019359     0.048257    -0.017722     0.000636     0.017087
   52 O      5.903328     7.069941     8.253971    -0.893914    -0.000000     0.053048    -0.001423     0.053067    -0.000000    -0.000000    -0.003932    -0.019359     0.048257    -0.017722     0.000636     0.017087
   53 O      0.000000     9.430246     8.149561    -0.914010    -0.000000     0.096727    -0.023745     0.099599     0.000000     0.000000     0.000989    -0.043977    -0.237787    -0.079269     0.017643     0.061626
   54 O      3.935552     9.430246     8.149561    -0.914010     0.000000     0.096727    -0.023745     0.099599    -0.000000    -0.000000     0.000989    -0.043977    -0.237787    -0.079269     0.017643     0.061626
   55 O      0.000000     7.920840    10.233798    -0.876470     0.000000    -0.058037     0.029957     0.065312    -0.000000     0.000000     0.010127     0.012419    -0.040427    -0.018786     0.005838     0.012947
   56 O      3.935552     7.920840    10.233798    -0.876470    -0.000000    -0.058037     0.029957     0.065312     0.000000    -0.000000     0.010127     0.012419    -0.040427    -0.018786     0.005838     0.012947
   57 O      1.967776     0.516098    14.279514    -0.885665     0.000000    -0.085833     0.038213     0.093955    -0.000000     0.000000    -0.010291    -0.135450    -0.012461    -0.065648    -0.005559     0.071207
   58 O      5.903328     0.516098    14.279514    -0.885665    -0.000000    -0.085833     0.038213     0.093955     0.000000    -0.000000    -0.010291    -0.135450    -0.012461    -0.065648    -0.005559     0.071207
   59 O      0.000000     2.048489    14.333124    -0.872772    -0.000000     0.046626     0.044294     0.064311    -0.000000    -0.000000    -0.003960     0.012379     0.006955    -0.008764     0.003733     0.005030
   60 O      3.935552     2.048489    14.333124    -0.872772     0.000000     0.046626     0.044294     0.064311     0.000000     0.000000    -0.003960     0.012379     0.006955    -0.008764     0.003733     0.005030
   61 O      1.967776     4.368432    14.138271    -0.769359    -0.000000     0.169447     0.116949     0.205886     0.000000    -0.000000     0.014232    -0.166318    -0.201506    -0.068263    -0.049575     0.117838
   62 O      5.903328     4.368432    14.138271    -0.769360     0.000000     0.169447     0.116949     0.205886    -0.000000     0.000000     0.014232    -0.166318    -0.201505    -0.068263    -0.049575     0.117838
   63 O      1.967776     2.818036    12.064558    -0.890347    -0.000000    -0.044337    -0.030010     0.053539    -0.000000    -0.000000    -0.023381     0.016816    -0.026065    -0.029871     0.012752     0.017119
   64 O      5.903328     2.818036    12.064558    -0.890347     0.000000    -0.044337    -0.030010     0.053539     0.000000     0.000000    -0.023381     0.016816    -0.026065    -0.029871     0.012752     0.017119
   65 O      0.000000     5.520082    12.210980    -0.918013     0.000000    -0.062053    -0.000829     0.062059    -0.000000    -0.000000     0.013082    -0.110666     0.064320    -0.066053     0.015552     0.050502
   66 O      3.935552     5.520082    12.210980    -0.918013    -0.000000    -0.062053    -0.000829     0.062059     0.000000     0.000000     0.013082    -0.110666     0.064320    -0.066053     0.015552     0.050502
   67 O      1.967776     7.063657    12.175084    -0.867039    -0.000000     0.041170    -0.011806     0.042829    -0.000000    -0.000000    -0.010711     0.002177     0.028899    -0.011368    -0.003728     0.015096
   68 O      5.903328     7.063657    12.175084    -0.867039     0.000000     0.041170    -0.011806     0.042829     0.000000     0.000000    -0.010711     0.002177     0.028899    -0.011368    -0.003728     0.015096
   69 O      0.000000     9.554610    12.085743    -0.947824     0.000000     0.069958    -0.032647     0.077201     0.000000     0.000000     0.020036    -0.014128    -0.200850    -0.070563     0.026411     0.044152
   70 O      3.935552     9.554610    12.085743    -0.947824    -0.000000     0.069958    -0.032647     0.077201    -0.000000    -0.000000     0.020036    -0.014128    -0.200850    -0.070563     0.026411     0.044152
   71 O      0.000000     8.066346    14.167362    -0.797556    -0.000000    -0.122783     0.148370     0.192586     0.000000    -0.000000     0.016135    -0.016004     0.064101    -0.018686    -0.010780     0.029465
   72 O      3.935552     8.066346    14.167362    -0.797557     0.000000    -0.122783     0.148370     0.192586    -0.000000     0.000000     0.016135    -0.016004     0.064102    -0.018686    -0.010780     0.029465
 
The sperically averaged electron density of each atom fit to a function of the form exp(a - br) for r >=rmin_cloud_penetration
atom number,atomic symbol, x, y, z, a, b, Rsquared where a and b are in atomic units and Rsquared is the squared correlation coefficient
    1 Fe     0.000000     0.001125     6.118273    -0.714109     1.754350     0.999973
    2 Fe     3.935552     0.001125     6.118273    -0.714110     1.754350     0.999973
    3 Fe     1.967776     4.898592     4.291783    -0.402030     1.808978     0.999898
    4 Fe     5.903328     4.898592     4.291783    -0.402030     1.808978     0.999898
    5 Fe     0.000000     0.006752    10.110021    -0.759904     1.748698     0.999981
    6 Fe     3.935552     0.006752    10.110021    -0.759904     1.748698     0.999981
    7 Fe     1.967776     4.981059     8.230499    -0.755887     1.748388     0.999981
    8 Fe     5.903328     4.981059     8.230499    -0.755887     1.748388     0.999981
    9 Fe     0.000000     9.909308    13.984741    -0.446284     1.802480     0.999774
   10 Fe     3.935552     9.909308    13.984741    -0.446282     1.802480     0.999774
   11 Fe     1.967776     4.991954    12.193927    -0.717075     1.754087     0.999971
   12 Fe     5.903328     4.991954    12.193927    -0.717075     1.754087     0.999971
   13 Sb     1.967776     2.539920     6.066811     0.327467     1.765342     0.999942
   14 Sb     5.903328     2.539920     6.066811     0.327467     1.765342     0.999942
   15 Sb     0.000000     7.449565     4.329552     0.548533     1.809768     0.999936
   16 Sb     3.935552     7.449565     4.329552     0.548533     1.809768     0.999936
   17 Sb     1.967776     2.477260    10.063243     0.272796     1.760115     0.999918
   18 Sb     5.903328     2.477260    10.063243     0.272796     1.760115     0.999918
   19 Sb     0.000000     7.467332     8.283531     0.276787     1.759647     0.999921
   20 Sb     3.935552     7.467332     8.283531     0.276787     1.759647     0.999921
   21 Sb     1.967776     2.474999    13.974713     0.544929     1.810754     0.999918
   22 Sb     5.903328     2.474999    13.974713     0.544929     1.810754     0.999918
   23 Sb     0.000000     7.523748    12.262606     0.312718     1.765037     0.999938
   24 Sb     3.935552     7.523748    12.262606     0.312718     1.765037     0.999938
   25 O      1.967776     0.535657     6.115766    -0.904259     1.751061     0.999997
   26 O      5.903328     0.535657     6.115766    -0.904259     1.751061     0.999997
   27 O      0.000000     2.102306     6.171359    -0.947325     1.752088     0.999995
   28 O      3.935552     2.102306     6.171359    -0.947325     1.752088     0.999995
   29 O      1.967776     4.569089     6.227146    -0.832772     1.754493     0.999996
   30 O      5.903328     4.569089     6.227146    -0.832772     1.754493     0.999996
   31 O      1.967776     3.026869     4.141586    -1.206249     1.772694     0.999871
   32 O      5.903328     3.026869     4.141586    -1.206249     1.772694     0.999871
   33 O      0.000000     5.487109     3.977450    -0.737752     1.815298     0.999843
   34 O      3.935552     5.487109     3.977450    -0.737752     1.815298     0.999843
   35 O      1.967776     7.036211     3.958607    -0.784425     1.809554     0.999851
   36 O      5.903328     7.036211     3.958607    -0.784425     1.809554     0.999851
   37 O      0.000000     9.343396     4.149548    -1.177736     1.778867     0.999928
   38 O      3.935552     9.343396     4.149548    -1.177736     1.778867     0.999928
   39 O      0.000000     7.764329     6.255108    -0.906074     1.754196     0.999994
   40 O      3.935552     7.764329     6.255108    -0.906074     1.754196     0.999994
   41 O      1.967776     0.502813    10.087678    -0.894758     1.748862     0.999998
   42 O      5.903328     0.502813    10.087678    -0.894758     1.748862     0.999998
   43 O      0.000000     2.063407    10.095943    -0.936310     1.749000     0.999998
   44 O      3.935552     2.063407    10.095943    -0.936310     1.749000     0.999998
   45 O      1.967776     4.448868    10.183053    -0.924546     1.748853     0.999997
   46 O      5.903328     4.448868    10.183053    -0.924546     1.748853     0.999997
   47 O      1.967776     2.923289     8.116144    -0.974521     1.748183     0.999997
   48 O      5.903328     2.923289     8.116144    -0.974521     1.748183     0.999997
   49 O      0.000000     5.491690     8.268406    -0.893578     1.748861     0.999998
   50 O      3.935552     5.491690     8.268406    -0.893578     1.748861     0.999998
   51 O      1.967776     7.069941     8.253971    -0.927537     1.749079     0.999998
   52 O      5.903328     7.069941     8.253971    -0.927537     1.749079     0.999998
   53 O      0.000000     9.430246     8.149561    -0.926444     1.748792     0.999997
   54 O      3.935552     9.430246     8.149561    -0.926444     1.748792     0.999997
   55 O      0.000000     7.920840    10.233798    -0.971461     1.748461     0.999997
   56 O      3.935552     7.920840    10.233798    -0.971461     1.748461     0.999997
   57 O      1.967776     0.516098    14.279514    -0.826588     1.797863     0.999222
   58 O      5.903328     0.516098    14.279514    -0.826588     1.797863     0.999222
   59 O      0.000000     2.048489    14.333124    -0.843688     1.798377     0.999608
   60 O      3.935552     2.048489    14.333124    -0.843688     1.798377     0.999608
   61 O      1.967776     4.368432    14.138271    -1.294871     1.756493     0.999381
   62 O      5.903328     4.368432    14.138271    -1.294871     1.756493     0.999381
   63 O      1.967776     2.818036    12.064558    -0.911660     1.754089     0.999994
   64 O      5.903328     2.818036    12.064558    -0.911660     1.754089     0.999994
   65 O      0.000000     5.520082    12.210980    -0.907052     1.750914     0.999996
   66 O      3.935552     5.520082    12.210980    -0.907052     1.750914     0.999996
   67 O      1.967776     7.063657    12.175084    -0.954044     1.751769     0.999996
   68 O      5.903328     7.063657    12.175084    -0.954044     1.751769     0.999996
   69 O      0.000000     9.554610    12.085743    -0.832435     1.754052     0.999995
   70 O      3.935552     9.554610    12.085743    -0.832436     1.754052     0.999995
   71 O      0.000000     8.066346    14.167362    -1.344754     1.748119     0.999492
   72 O      3.935552     8.066346    14.167362    -1.344754     1.748119     0.999492
 
 2023/12/02  15:14:42
