   96
jmolscript: load "" {1 1 1} spacegroup "x,y,z" unitcell [{      9.394774     0.000000     0.214484 }, {      0.340894    11.250790     0.679456 }, {      0.000000     0.000000     0.000000 }]
Fe     0.377315     3.785306    14.509592     1.585066
Fe     0.547719     9.409924    14.846774     1.585082
Fe     5.074702     3.785306    14.616834     1.585066
Fe     5.245106     9.409924    14.954016     1.585082
Fe     9.262685     3.737557     6.892512     1.573707
Fe     9.433132     9.362952     7.232240     1.573814
Fe     4.565298     3.737557     6.785270     1.573707
Fe     4.735745     9.362952     7.124998     1.573814
Fe     9.342292     0.015110    11.908653     1.644944
Fe     9.511895     5.639301    12.248071     1.645446
Fe     4.644905     0.015110    11.801411     1.644944
Fe     4.814508     5.639301    12.140829     1.645446
Fe     0.116053     1.860352     9.193085     1.636929
Fe     0.286500     7.485747     9.532813     1.639569
Fe     4.813440     1.860352     9.300327     1.636929
Fe     4.983887     7.485747     9.640055     1.639569
Sb     2.192370     0.885088    14.326151     1.919868
Sb     2.363840     6.511383    14.665893     1.919481
Sb     6.889757     0.885088    14.433393     1.919868
Sb     7.061227     6.511383    14.773135     1.919481
Sb     2.570109     0.998091     6.638649     1.910234
Sb     2.740556     6.623486     6.978377     1.910297
Sb     7.267496     0.998091     6.745891     1.910234
Sb     7.437943     6.623486     7.085619     1.910298
Sb     2.484669     2.823296    11.932355     2.012460
Sb     2.649073     8.444899    12.263945     2.007105
Sb     7.182056     2.823296    12.039597     2.012460
Sb     7.346460     8.444899    12.371187     2.007105
Sb     2.452089     4.676245     9.409250     2.009548
Sb     2.622536    10.301640     9.748978     2.011861
Sb     7.149476     4.676245     9.516492     2.009548
Sb     7.319923    10.301640     9.856220     2.011861
O      3.941796     5.430846    14.011152    -0.958845
O      4.112835    11.056230    14.350299    -0.958496
O      8.639183     5.430846    14.118394    -0.958845
O      8.810222    11.056230    14.457541    -0.958496
O      3.930850     5.397319     6.030241    -0.836854
O      4.101297    11.022714     6.369969    -0.837028
O      8.628237     5.397319     6.137483    -0.836855
O      8.798684    11.022714     6.477211    -0.837028
O      3.854649     1.679360    11.077875    -0.944013
O      4.023190     7.304463    11.415544    -0.943334
O      8.552036     1.679360    11.185117    -0.944013
O      8.720577     7.304463    11.522786    -0.943334
O      3.892419     3.541377     8.628447    -0.961607
O      4.062866     9.166772     8.968175    -0.962125
O      8.589806     3.541377     8.735689    -0.961607
O      8.760253     9.166772     9.075417    -0.962125
O      1.000127     2.138393    15.231370    -0.849078
O      1.169154     7.764384    15.570602    -0.848883
O      5.697514     2.138393    15.338612    -0.849079
O      5.866541     7.764384    15.677844    -0.848883
O      0.990273     2.068975     7.293802    -0.956309
O      1.160720     7.694370     7.633530    -0.955812
O      5.687660     2.068975     7.401044    -0.956309
O      5.858107     7.694370     7.740772    -0.955812
O      1.042023     3.971956    12.700159    -0.964759
O      1.210221     9.596609    13.035202    -0.964418
O      5.739410     3.971956    12.807401    -0.964759
O      5.907608     9.596609    13.142444    -0.964418
O      0.909646     0.182848     9.922120    -0.941415
O      1.080093     5.808243    10.261848    -0.941245
O      5.607033     0.182848    10.029362    -0.941415
O      5.777480     5.808243    10.369090    -0.941245
O      3.315557     2.566710    13.756240    -0.865069
O      3.482380     8.192184    14.089770    -0.864561
O      8.012944     2.566710    13.863482    -0.865069
O      8.179767     8.192184    14.197012    -0.864561
O      3.325459     2.585634     5.829766    -0.832377
O      3.495906     8.211029     6.169494    -0.832652
O      8.022846     2.585634     5.937008    -0.832378
O      8.193293     8.211029     6.276736    -0.832652
O      3.385295     4.491608    11.231741    -0.863542
O      3.550964    10.114021    11.568872    -0.862219
O      8.082682     4.491608    11.338983    -0.863542
O      8.248351    10.114021    11.676114    -0.862219
O      3.300826     0.726812     8.481350    -0.874789
O      3.471273     6.352207     8.821078    -0.874699
O      7.998213     0.726812     8.588592    -0.874789
O      8.168660     6.352207     8.928320    -0.874699
O      1.458068     1.149684    12.496270    -0.875011
O      1.625463     6.773572    12.834308    -0.874553
O      6.155455     1.149684    12.603512    -0.875011
O      6.322850     6.773572    12.941550    -0.874553
O      1.587163     4.934990    15.459406    -0.839914
O      1.756607    10.558270    15.798642    -0.840022
O      6.284550     4.934990    15.566648    -0.839915
O      6.453994    10.558270    15.905884    -0.840022
O      1.555672     3.005772    10.123881    -0.861396
O      1.721942     8.627263    10.440363    -0.861617
O      6.253059     3.005772    10.231123    -0.861396
O      6.419329     8.627263    10.547605    -0.861617
O      1.627484     4.931840     7.563626    -0.869453
O      1.797931    10.557235     7.903354    -0.869312
O      6.324871     4.931840     7.670868    -0.869453
O      6.495318    10.557235     8.010596    -0.869312
 
 Chargemol version 3.5 September 26, 2017.
See ddec.sourceforge.net for latest version.
 
Computational parameters:
Number of radial integration shells =    100
Cutoff radius (pm) =    500
Error in the integrated total number of electrons before renormalization (e) =    1.9666E-03
Charge convergence tolerance =    1.0000E-05
Minimum radius for electron cloud penetration fitting (pm) =    200
Minimum decay exponent for electron density of buried atom tails =   1.7500
Maximum decay exponent for electron density of buried atom tails =  2.5000
Number of iterations to convergence =      7
 
The following XYZ coordinates are in angstroms. The atomic dipoles and quadrupoles are in atomic units.
atom number, atomic symbol, x, y, z, net_charge, dipole_x, dipole_y, dipole_z, dipole_mag, Qxy, Qxz, Qyz,Q(x^2-y^2), Q(3z^2 - R^2), three eigenvalues of traceless quadrupole moment tensor
    1 Fe     0.377315     3.785306    14.509592     1.585066    -0.048601    -0.008476     0.054055     0.073183     0.012833    -0.045560    -0.020061     0.091927     0.271959    -0.094211    -0.018179     0.112391
    2 Fe     0.547719     9.409924    14.846774     1.585082    -0.048345    -0.007917     0.053270     0.072371     0.012774    -0.045741    -0.019877     0.092188     0.275473    -0.094868    -0.018514     0.113381
    3 Fe     5.074702     3.785306    14.616834     1.585066    -0.048601    -0.008476     0.054055     0.073183     0.012833    -0.045560    -0.020061     0.091927     0.271959    -0.094211    -0.018179     0.112391
    4 Fe     5.245106     9.409924    14.954016     1.585082    -0.048345    -0.007917     0.053270     0.072372     0.012774    -0.045741    -0.019877     0.092188     0.275473    -0.094868    -0.018514     0.113381
    5 Fe     9.262685     3.737557     6.892512     1.573707     0.052152     0.006425    -0.056065     0.076839     0.012856    -0.052931    -0.019054     0.098244     0.298379    -0.101367    -0.023180     0.124547
    6 Fe     9.433132     9.362952     7.232240     1.573814     0.052119     0.006541    -0.055991     0.076773     0.012882    -0.052339    -0.019313     0.098484     0.297947    -0.101462    -0.022617     0.124079
    7 Fe     4.565298     3.737557     6.785270     1.573707     0.052152     0.006425    -0.056065     0.076839     0.012856    -0.052931    -0.019054     0.098244     0.298379    -0.101367    -0.023180     0.124547
    8 Fe     4.735745     9.362952     7.124998     1.573814     0.052119     0.006541    -0.055991     0.076773     0.012882    -0.052339    -0.019313     0.098484     0.297947    -0.101462    -0.022617     0.124079
    9 Fe     9.342292     0.015110    11.908653     1.644944     0.007515    -0.001788    -0.009144     0.011970     0.015420     0.002741    -0.003286    -0.004330    -0.002476    -0.016312     0.000300     0.016012
   10 Fe     9.511895     5.639301    12.248071     1.645446     0.007983    -0.001794    -0.009128     0.012258     0.014502     0.002078    -0.003283    -0.005753    -0.001797    -0.015407     0.000226     0.015181
   11 Fe     4.644905     0.015110    11.801411     1.644944     0.007515    -0.001788    -0.009144     0.011970     0.015420     0.002741    -0.003286    -0.004330    -0.002476    -0.016312     0.000300     0.016012
   12 Fe     4.814508     5.639301    12.140829     1.645446     0.007983    -0.001794    -0.009128     0.012258     0.014502     0.002078    -0.003283    -0.005753    -0.001797    -0.015407     0.000226     0.015181
   13 Fe     0.116053     1.860352     9.193085     1.636929    -0.007373     0.004217     0.006948     0.010974     0.013363     0.003762    -0.002559    -0.004323     0.001482    -0.015097     0.001787     0.013310
   14 Fe     0.286500     7.485747     9.532813     1.639569    -0.006632     0.004764     0.006972     0.010737     0.013625     0.003733    -0.003063    -0.003190     0.000920    -0.015358     0.001790     0.013568
   15 Fe     4.813440     1.860352     9.300327     1.636929    -0.007374     0.004217     0.006948     0.010974     0.013363     0.003762    -0.002559    -0.004323     0.001482    -0.015097     0.001787     0.013310
   16 Fe     4.983887     7.485747     9.640055     1.639569    -0.006632     0.004764     0.006972     0.010737     0.013625     0.003733    -0.003063    -0.003190     0.000920    -0.015358     0.001790     0.013568
   17 Sb     2.192370     0.885088    14.326151     1.919868     0.039831    -0.027080     0.072337     0.086905     0.022600     0.128110     0.049423     0.168338     0.409336    -0.160628    -0.064814     0.225442
   18 Sb     2.363840     6.511383    14.665893     1.919481     0.039414    -0.026950     0.071807     0.086232     0.022414     0.128670     0.049689     0.167124     0.413040    -0.160685    -0.065815     0.226500
   19 Sb     6.889757     0.885088    14.433393     1.919868     0.039831    -0.027080     0.072337     0.086905     0.022600     0.128110     0.049423     0.168338     0.409336    -0.160628    -0.064814     0.225442
   20 Sb     7.061227     6.511383    14.773135     1.919481     0.039414    -0.026950     0.071807     0.086232     0.022414     0.128670     0.049689     0.167125     0.413040    -0.160685    -0.065815     0.226500
   21 Sb     2.570109     0.998091     6.638649     1.910234    -0.049637     0.029694    -0.068755     0.089849     0.022039     0.129639     0.043684     0.175101     0.432030    -0.165826    -0.064722     0.230548
   22 Sb     2.740556     6.623486     6.978377     1.910297    -0.049388     0.029276    -0.068470     0.089355     0.022778     0.128984     0.044539     0.173679     0.433004    -0.165551    -0.064702     0.230253
   23 Sb     7.267496     0.998091     6.745891     1.910234    -0.049637     0.029694    -0.068755     0.089849     0.022039     0.129639     0.043684     0.175101     0.432030    -0.165826    -0.064722     0.230547
   24 Sb     7.437943     6.623486     7.085619     1.910298    -0.049388     0.029276    -0.068470     0.089355     0.022778     0.128984     0.044539     0.173679     0.433004    -0.165551    -0.064702     0.230253
   25 Sb     2.484669     2.823296    11.932355     2.012460    -0.009604     0.005486    -0.025170     0.027493     0.052403     0.052795     0.084517     0.077839    -0.213687    -0.129536    -0.008795     0.138332
   26 Sb     2.649073     8.444899    12.263945     2.007105    -0.007677     0.005208    -0.021825     0.023715     0.052885     0.051333     0.085722     0.075591    -0.215843    -0.130481    -0.007712     0.138193
   27 Sb     7.182056     2.823296    12.039597     2.012460    -0.009604     0.005486    -0.025170     0.027493     0.052403     0.052795     0.084517     0.077840    -0.213687    -0.129536    -0.008795     0.138332
   28 Sb     7.346460     8.444899    12.371187     2.007105    -0.007677     0.005208    -0.021825     0.023715     0.052885     0.051333     0.085722     0.075591    -0.215843    -0.130482    -0.007712     0.138193
   29 Sb     2.452089     4.676245     9.409250     2.009548     0.008262    -0.000045     0.020855     0.022432     0.053701     0.050670     0.086425     0.076715    -0.195320    -0.127420    -0.009735     0.137155
   30 Sb     2.622536    10.301640     9.748978     2.011861     0.008182    -0.001211     0.020709     0.022300     0.053857     0.051265     0.086854     0.073541    -0.197070    -0.127687    -0.009865     0.137551
   31 Sb     7.149476     4.676245     9.516492     2.009548     0.008262    -0.000045     0.020855     0.022432     0.053701     0.050670     0.086425     0.076715    -0.195320    -0.127420    -0.009735     0.137155
   32 Sb     7.319923    10.301640     9.856220     2.011861     0.008182    -0.001211     0.020709     0.022300     0.053857     0.051265     0.086854     0.073541    -0.197070    -0.127687    -0.009865     0.137551
   33 O      3.941796     5.430846    14.011152    -0.958845    -0.011920     0.001520     0.021881     0.024964     0.006824    -0.010049     0.034975    -0.009659    -0.026391    -0.039650     0.003300     0.036350
   34 O      4.112835    11.056230    14.350299    -0.958496    -0.012208     0.001778     0.022038     0.025256     0.007133    -0.009873     0.035536    -0.009995    -0.027283    -0.040238     0.003271     0.036967
   35 O      8.639183     5.430846    14.118394    -0.958845    -0.011920     0.001520     0.021881     0.024964     0.006824    -0.010049     0.034975    -0.009659    -0.026391    -0.039650     0.003300     0.036350
   36 O      8.810222    11.056230    14.457541    -0.958496    -0.012208     0.001778     0.022038     0.025256     0.007133    -0.009873     0.035536    -0.009995    -0.027283    -0.040238     0.003271     0.036967
   37 O      3.930850     5.397319     6.030241    -0.836854     0.043799     0.025816    -0.137630     0.146720    -0.017183    -0.024324     0.031240     0.029301    -0.025973    -0.041208    -0.008724     0.049932
   38 O      4.101297    11.022714     6.369969    -0.837028     0.043783     0.025525    -0.137565     0.146603    -0.017216    -0.024305     0.031380     0.029139    -0.026059    -0.041311    -0.008683     0.049994
   39 O      8.628237     5.397319     6.137483    -0.836855     0.043799     0.025816    -0.137630     0.146720    -0.017183    -0.024324     0.031240     0.029301    -0.025973    -0.041208    -0.008724     0.049932
   40 O      8.798684    11.022714     6.477211    -0.837028     0.043783     0.025525    -0.137565     0.146603    -0.017216    -0.024305     0.031380     0.029139    -0.026059    -0.041311    -0.008683     0.049994
   41 O      3.854649     1.679360    11.077875    -0.944013    -0.004224     0.012638    -0.011144     0.017371     0.013502     0.017938     0.037265     0.034781    -0.074110    -0.053870     0.005110     0.048761
   42 O      4.023190     7.304463    11.415544    -0.943334    -0.003900     0.011752    -0.010353     0.016140     0.013106     0.017723     0.038075     0.033433    -0.071788    -0.054060     0.005755     0.048305
   43 O      8.552036     1.679360    11.185117    -0.944013    -0.004224     0.012638    -0.011144     0.017371     0.013502     0.017938     0.037265     0.034781    -0.074110    -0.053871     0.005110     0.048761
   44 O      8.720577     7.304463    11.522786    -0.943334    -0.003900     0.011752    -0.010353     0.016140     0.013106     0.017723     0.038075     0.033433    -0.071788    -0.054060     0.005755     0.048305
   45 O      3.892419     3.541377     8.628447    -0.961607     0.007341     0.012094     0.031867     0.034866     0.017868    -0.003159     0.027322     0.037441    -0.051946    -0.044140     0.008294     0.035846
   46 O      4.062866     9.166772     8.968175    -0.962125     0.007449     0.011807     0.031949     0.034866     0.018314    -0.003114     0.027328     0.038906    -0.053432    -0.044685     0.007828     0.036857
   47 O      8.589806     3.541377     8.735689    -0.961607     0.007341     0.012094     0.031867     0.034866     0.017868    -0.003159     0.027322     0.037441    -0.051946    -0.044140     0.008294     0.035846
   48 O      8.760253     9.166772     9.075417    -0.962125     0.007449     0.011807     0.031949     0.034866     0.018314    -0.003114     0.027328     0.038907    -0.053432    -0.044686     0.007828     0.036857
   49 O      1.000127     2.138393    15.231370    -0.849078    -0.044354    -0.024484     0.126389     0.136165    -0.012311    -0.018341     0.030096     0.034180    -0.028709    -0.041321    -0.001108     0.042430
   50 O      1.169154     7.764384    15.570602    -0.848883    -0.043937    -0.024910     0.126698     0.136394    -0.012287    -0.018338     0.030037     0.033198    -0.028312    -0.040991    -0.001221     0.042212
   51 O      5.697514     2.138393    15.338612    -0.849079    -0.044354    -0.024484     0.126389     0.136165    -0.012311    -0.018341     0.030096     0.034180    -0.028709    -0.041321    -0.001108     0.042430
   52 O      5.866541     7.764384    15.677844    -0.848883    -0.043937    -0.024910     0.126698     0.136394    -0.012287    -0.018338     0.030037     0.033198    -0.028312    -0.040991    -0.001221     0.042212
   53 O      0.990273     2.068975     7.293802    -0.956309     0.008101     0.001147    -0.020302     0.021889     0.004823    -0.011999     0.034429    -0.011442    -0.027188    -0.039266     0.002589     0.036677
   54 O      1.160720     7.694370     7.633530    -0.955812     0.008656     0.001960    -0.019118     0.021077     0.004705    -0.011466     0.035129    -0.011763    -0.027001    -0.039523     0.002112     0.037411
   55 O      5.687660     2.068975     7.401044    -0.956309     0.008101     0.001147    -0.020302     0.021889     0.004823    -0.011999     0.034429    -0.011442    -0.027188    -0.039266     0.002589     0.036677
   56 O      5.858107     7.694370     7.740772    -0.955812     0.008656     0.001960    -0.019118     0.021077     0.004705    -0.011466     0.035129    -0.011763    -0.027001    -0.039523     0.002112     0.037411
   57 O      1.042023     3.971956    12.700159    -0.964759    -0.005215    -0.009585    -0.038696     0.040204     0.020306    -0.001834     0.027403     0.034995    -0.052204    -0.044027     0.006325     0.037702
   58 O      1.210221     9.596609    13.035202    -0.964418    -0.004873    -0.009737    -0.038017     0.039546     0.019615    -0.001259     0.026565     0.036281    -0.055136    -0.043385     0.005483     0.037901
   59 O      5.739410     3.971956    12.807401    -0.964759    -0.005215    -0.009585    -0.038696     0.040204     0.020306    -0.001834     0.027403     0.034995    -0.052204    -0.044027     0.006325     0.037702
   60 O      5.907608     9.596609    13.142444    -0.964418    -0.004873    -0.009737    -0.038017     0.039546     0.019615    -0.001259     0.026565     0.036281    -0.055136    -0.043385     0.005483     0.037901
   61 O      0.909646     0.182848     9.922120    -0.941415     0.002809    -0.010825     0.010849     0.015581     0.011740     0.018951     0.036684     0.029784    -0.072446    -0.052575     0.005582     0.046994
   62 O      1.080093     5.808243    10.261848    -0.941245     0.002910    -0.011275     0.010841     0.015910     0.011763     0.018387     0.036218     0.029119    -0.073304    -0.052077     0.005693     0.046384
   63 O      5.607033     0.182848    10.029362    -0.941415     0.002809    -0.010825     0.010849     0.015581     0.011740     0.018951     0.036684     0.029784    -0.072446    -0.052575     0.005582     0.046994
   64 O      5.777480     5.808243    10.369090    -0.941245     0.002910    -0.011275     0.010841     0.015910     0.011763     0.018387     0.036218     0.029119    -0.073304    -0.052077     0.005693     0.046384
   65 O      3.315557     2.566710    13.756240    -0.865069     0.064012     0.026974     0.051473     0.086456    -0.004506    -0.003096    -0.049277    -0.059293     0.131520    -0.052715    -0.025549     0.078265
   66 O      3.482380     8.192184    14.089770    -0.864561     0.064139     0.027935     0.049239     0.085549    -0.004356    -0.002733    -0.049467    -0.061028     0.130523    -0.053246    -0.025317     0.078564
   67 O      8.012944     2.566710    13.863482    -0.865069     0.064012     0.026974     0.051473     0.086456    -0.004506    -0.003096    -0.049277    -0.059293     0.131520    -0.052715    -0.025549     0.078265
   68 O      8.179767     8.192184    14.197012    -0.864561     0.064139     0.027935     0.049239     0.085549    -0.004356    -0.002733    -0.049467    -0.061028     0.130523    -0.053246    -0.025317     0.078564
   69 O      3.325459     2.585634     5.829766    -0.832377    -0.028771     0.043824    -0.144429     0.153649     0.018641    -0.022937    -0.043534    -0.068792     0.023306    -0.047764    -0.023932     0.071696
   70 O      3.495906     8.211029     6.169494    -0.832652    -0.028826     0.043966    -0.144236     0.153519     0.018651    -0.022978    -0.043534    -0.069250     0.023460    -0.048005    -0.023825     0.071830
   71 O      8.022846     2.585634     5.937008    -0.832378    -0.028771     0.043824    -0.144429     0.153649     0.018641    -0.022937    -0.043534    -0.068792     0.023306    -0.047764    -0.023932     0.071695
   72 O      8.193293     8.211029     6.276736    -0.832652    -0.028826     0.043966    -0.144236     0.153519     0.018651    -0.022978    -0.043534    -0.069250     0.023459    -0.048005    -0.023825     0.071830
   73 O      3.385295     4.491608    11.231741    -0.863542     0.032085     0.031723     0.004054     0.045302    -0.021328    -0.020074    -0.045443    -0.027670     0.065685    -0.059001     0.000122     0.058878
   74 O      3.550964    10.114021    11.568872    -0.862219     0.033180     0.031632     0.006118     0.046248    -0.021188    -0.019673    -0.045549    -0.029068     0.066333    -0.058794    -0.000538     0.059332
   75 O      8.082682     4.491608    11.338983    -0.863542     0.032085     0.031723     0.004054     0.045302    -0.021328    -0.020074    -0.045443    -0.027670     0.065685    -0.059001     0.000122     0.058878
   76 O      8.248351    10.114021    11.676114    -0.862219     0.033180     0.031632     0.006118     0.046248    -0.021188    -0.019673    -0.045549    -0.029068     0.066333    -0.058794    -0.000538     0.059332
   77 O      3.300826     0.726812     8.481350    -0.874789     0.025749     0.016495     0.046721     0.055838    -0.022227    -0.007155    -0.043501    -0.031347     0.107850    -0.054914    -0.009837     0.064752
   78 O      3.471273     6.352207     8.821078    -0.874699     0.025116     0.016796     0.046736     0.055652    -0.022573    -0.007294    -0.043597    -0.032054     0.106661    -0.055258    -0.009496     0.064754
   79 O      7.998213     0.726812     8.588592    -0.874789     0.025749     0.016495     0.046721     0.055838    -0.022227    -0.007155    -0.043501    -0.031347     0.107850    -0.054914    -0.009837     0.064752
   80 O      8.168660     6.352207     8.928320    -0.874699     0.025116     0.016796     0.046736     0.055652    -0.022573    -0.007294    -0.043597    -0.032054     0.106661    -0.055258    -0.009496     0.064754
   81 O      1.458068     1.149684    12.496270    -0.875011    -0.027195    -0.016381    -0.051296     0.060325    -0.024616    -0.008171    -0.042626    -0.031012     0.110585    -0.057408    -0.007037     0.064445
   82 O      1.625463     6.773572    12.834308    -0.874553    -0.027013    -0.016853    -0.049500     0.058856    -0.024273    -0.008180    -0.042318    -0.031139     0.108661    -0.056792    -0.007019     0.063811
   83 O      6.155455     1.149684    12.603512    -0.875011    -0.027195    -0.016381    -0.051296     0.060325    -0.024616    -0.008171    -0.042626    -0.031012     0.110585    -0.057408    -0.007037     0.064445
   84 O      6.322850     6.773572    12.941550    -0.874553    -0.027013    -0.016853    -0.049500     0.058856    -0.024273    -0.008180    -0.042318    -0.031139     0.108661    -0.056792    -0.007019     0.063811
   85 O      1.587163     4.934990    15.459406    -0.839914     0.024088    -0.044921     0.141456     0.150359     0.017437    -0.022671    -0.041928    -0.064919     0.016553    -0.045359    -0.023248     0.068607
   86 O      1.756607    10.558270    15.798642    -0.840022     0.024112    -0.045191     0.142285     0.151224     0.017335    -0.023335    -0.041801    -0.065073     0.016650    -0.045947    -0.022751     0.068698
   87 O      6.284550     4.934990    15.566648    -0.839915     0.024088    -0.044921     0.141456     0.150359     0.017437    -0.022671    -0.041928    -0.064919     0.016553    -0.045359    -0.023248     0.068607
   88 O      6.453994    10.558270    15.905884    -0.840022     0.024112    -0.045191     0.142285     0.151224     0.017335    -0.023335    -0.041801    -0.065073     0.016651    -0.045947    -0.022751     0.068698
   89 O      1.555672     3.005772    10.123881    -0.861396    -0.033848    -0.030478    -0.002676     0.045626    -0.018301    -0.022208    -0.047143    -0.030502     0.060083    -0.059027    -0.001645     0.060672
   90 O      1.721942     8.627263    10.440363    -0.861617    -0.032319    -0.030517    -0.005589     0.044801    -0.021013    -0.020061    -0.046699    -0.030598     0.065487    -0.059591    -0.001074     0.060665
   91 O      6.253059     3.005772    10.231123    -0.861396    -0.033848    -0.030478    -0.002676     0.045627    -0.018301    -0.022208    -0.047143    -0.030502     0.060083    -0.059027    -0.001645     0.060672
   92 O      6.419329     8.627263    10.547605    -0.861617    -0.032319    -0.030517    -0.005589     0.044801    -0.021013    -0.020061    -0.046699    -0.030598     0.065487    -0.059591    -0.001074     0.060665
   93 O      1.627484     4.931840     7.563626    -0.869453    -0.058225    -0.025937    -0.047509     0.079498    -0.001898    -0.003869    -0.048590    -0.065348     0.129729    -0.054796    -0.023569     0.078365
   94 O      1.797931    10.557235     7.903354    -0.869312    -0.058404    -0.026765    -0.047231     0.079738    -0.001697    -0.004218    -0.048833    -0.066253     0.128025    -0.054988    -0.023505     0.078492
   95 O      6.324871     4.931840     7.670868    -0.869453    -0.058225    -0.025937    -0.047508     0.079498    -0.001898    -0.003869    -0.048590    -0.065348     0.129729    -0.054796    -0.023569     0.078365
   96 O      6.495318    10.557235     8.010596    -0.869312    -0.058404    -0.026765    -0.047231     0.079738    -0.001697    -0.004218    -0.048833    -0.066253     0.128025    -0.054988    -0.023504     0.078492
 
The sperically averaged electron density of each atom fit to a function of the form exp(a - br) for r >=rmin_cloud_penetration
atom number,atomic symbol, x, y, z, a, b, Rsquared where a and b are in atomic units and Rsquared is the squared correlation coefficient
    1 Fe     0.377315     3.785306    14.509592    -0.525579     1.789662     0.999967
    2 Fe     0.547719     9.409924    14.846774    -0.522075     1.789845     0.999967
    3 Fe     5.074702     3.785306    14.616834    -0.525579     1.789662     0.999967
    4 Fe     5.245106     9.409924    14.954016    -0.522075     1.789845     0.999967
    5 Fe     9.262685     3.737557     6.892512    -0.502288     1.791908     0.999974
    6 Fe     9.433132     9.362952     7.232240    -0.502558     1.791911     0.999974
    7 Fe     4.565298     3.737557     6.785270    -0.502285     1.791909     0.999974
    8 Fe     4.735745     9.362952     7.124998    -0.502555     1.791911     0.999974
    9 Fe     9.342292     0.015110    11.908653    -0.722834     1.749290     0.999997
   10 Fe     9.511895     5.639301    12.248071    -0.723160     1.749178     0.999997
   11 Fe     4.644905     0.015110    11.801411    -0.722834     1.749290     0.999997
   12 Fe     4.814508     5.639301    12.140829    -0.723160     1.749178     0.999997
   13 Fe     0.116053     1.860352     9.193085    -0.719340     1.749158     0.999997
   14 Fe     0.286500     7.485747     9.532813    -0.720995     1.749204     0.999997
   15 Fe     4.813440     1.860352     9.300327    -0.719340     1.749158     0.999997
   16 Fe     4.983887     7.485747     9.640055    -0.720995     1.749204     0.999997
   17 Sb     2.192370     0.885088    14.326151     0.504913     1.795652     0.999945
   18 Sb     2.363840     6.511383    14.665893     0.508999     1.796371     0.999946
   19 Sb     6.889757     0.885088    14.433393     0.504913     1.795653     0.999945
   20 Sb     7.061227     6.511383    14.773135     0.508999     1.796371     0.999946
   21 Sb     2.570109     0.998091     6.638649     0.518638     1.796364     0.999939
   22 Sb     2.740556     6.623486     6.978377     0.517777     1.796223     0.999939
   23 Sb     7.267496     0.998091     6.745891     0.518635     1.796363     0.999939
   24 Sb     7.437943     6.623486     7.085619     0.517774     1.796222     0.999939
   25 Sb     2.484669     2.823296    11.932355     0.262471     1.751125     0.999998
   26 Sb     2.649073     8.444899    12.263945     0.266609     1.751140     0.999998
   27 Sb     7.182056     2.823296    12.039597     0.262471     1.751125     0.999998
   28 Sb     7.346460     8.444899    12.371187     0.266609     1.751140     0.999998
   29 Sb     2.452089     4.676245     9.409250     0.261704     1.751269     0.999998
   30 Sb     2.622536    10.301640     9.748978     0.260451     1.751214     0.999998
   31 Sb     7.149476     4.676245     9.516492     0.261704     1.751269     0.999998
   32 Sb     7.319923    10.301640     9.856220     0.260451     1.751214     0.999998
   33 O      3.941796     5.430846    14.011152    -0.750964     1.756877     0.999999
   34 O      4.112835    11.056230    14.350299    -0.753673     1.756878     0.999999
   35 O      8.639183     5.430846    14.118394    -0.750964     1.756877     0.999999
   36 O      8.810222    11.056230    14.457541    -0.753673     1.756878     0.999999
   37 O      3.930850     5.397319     6.030241    -1.335064     1.730300     0.998134
   38 O      4.101297    11.022714     6.369969    -1.333279     1.730619     0.998150
   39 O      8.628237     5.397319     6.137483    -1.335070     1.730299     0.998134
   40 O      8.798684    11.022714     6.477211    -1.333285     1.730618     0.998150
   41 O      3.854649     1.679360    11.077875    -0.818057     1.748652     0.999998
   42 O      4.023190     7.304463    11.415544    -0.822614     1.748683     0.999998
   43 O      8.552036     1.679360    11.185117    -0.818057     1.748652     0.999998
   44 O      8.720577     7.304463    11.522786    -0.822614     1.748683     0.999998
   45 O      3.892419     3.541377     8.628447    -0.730567     1.755496     0.999999
   46 O      4.062866     9.166772     8.968175    -0.730380     1.755373     0.999999
   47 O      8.589806     3.541377     8.735689    -0.730567     1.755496     0.999999
   48 O      8.760253     9.166772     9.075417    -0.730380     1.755373     0.999999
   49 O      1.000127     2.138393    15.231370    -1.372653     1.719202     0.997650
   50 O      1.169154     7.764384    15.570602    -1.374557     1.718804     0.997627
   51 O      5.697514     2.138393    15.338612    -1.372652     1.719202     0.997650
   52 O      5.866541     7.764384    15.677844    -1.374556     1.718804     0.997627
   53 O      0.990273     2.068975     7.293802    -0.744955     1.756776     0.999998
   54 O      1.160720     7.694370     7.633530    -0.746573     1.756684     0.999998
   55 O      5.687660     2.068975     7.401044    -0.744955     1.756776     0.999998
   56 O      5.858107     7.694370     7.740772    -0.746573     1.756684     0.999998
   57 O      1.042023     3.971956    12.700159    -0.725394     1.755324     0.999999
   58 O      1.210221     9.596609    13.035202    -0.726161     1.755332     0.999999
   59 O      5.739410     3.971956    12.807401    -0.725394     1.755324     0.999999
   60 O      5.907608     9.596609    13.142444    -0.726161     1.755332     0.999999
   61 O      0.909646     0.182848     9.922120    -0.828756     1.748558     0.999998
   62 O      1.080093     5.808243    10.261848    -0.830164     1.748538     0.999998
   63 O      5.607033     0.182848    10.029362    -0.828757     1.748558     0.999998
   64 O      5.777480     5.808243    10.369090    -0.830164     1.748538     0.999998
   65 O      3.315557     2.566710    13.756240    -0.818640     1.756588     0.999996
   66 O      3.482380     8.192184    14.089770    -0.819240     1.756559     0.999996
   67 O      8.012944     2.566710    13.863482    -0.818640     1.756588     0.999996
   68 O      8.179767     8.192184    14.197012    -0.819239     1.756559     0.999996
   69 O      3.325459     2.585634     5.829766    -1.388114     1.718467     0.996737
   70 O      3.495906     8.211029     6.169494    -1.386364     1.718646     0.996750
   71 O      8.022846     2.585634     5.937008    -1.388119     1.718466     0.996737
   72 O      8.193293     8.211029     6.276736    -1.386370     1.718645     0.996750
   73 O      3.385295     4.491608    11.231741    -0.888343     1.749356     0.999998
   74 O      3.550964    10.114021    11.568872    -0.888636     1.749410     0.999998
   75 O      8.082682     4.491608    11.338983    -0.888343     1.749356     0.999998
   76 O      8.248351    10.114021    11.676114    -0.888636     1.749410     0.999998
   77 O      3.300826     0.726812     8.481350    -0.789803     1.756929     0.999998
   78 O      3.471273     6.352207     8.821078    -0.790461     1.756859     0.999998
   79 O      7.998213     0.726812     8.588592    -0.789803     1.756929     0.999998
   80 O      8.168660     6.352207     8.928320    -0.790461     1.756859     0.999998
   81 O      1.458068     1.149684    12.496270    -0.788582     1.756798     0.999998
   82 O      1.625463     6.773572    12.834308    -0.791370     1.756814     0.999998
   83 O      6.155455     1.149684    12.603512    -0.788582     1.756798     0.999998
   84 O      6.322850     6.773572    12.941550    -0.791370     1.756814     0.999998
   85 O      1.587163     4.934990    15.459406    -1.300976     1.733898     0.997908
   86 O      1.756607    10.558270    15.798642    -1.302097     1.733864     0.997927
   87 O      6.284550     4.934990    15.566648    -1.300976     1.733898     0.997908
   88 O      6.453994    10.558270    15.905884    -1.302096     1.733864     0.997927
   89 O      1.555672     3.005772    10.123881    -0.889151     1.749213     0.999998
   90 O      1.721942     8.627263    10.440363    -0.889887     1.749256     0.999998
   91 O      6.253059     3.005772    10.231123    -0.889151     1.749213     0.999998
   92 O      6.419329     8.627263    10.547605    -0.889887     1.749256     0.999998
   93 O      1.627484     4.931840     7.563626    -0.810127     1.756745     0.999997
   94 O      1.797931    10.557235     7.903354    -0.810669     1.756684     0.999997
   95 O      6.324871     4.931840     7.670868    -0.810127     1.756745     0.999997
   96 O      6.495318    10.557235     8.010596    -0.810669     1.756684     0.999997
 
 2023/12/02  15:29:09
