   72
jmolscript: load "" {1 1 1} spacegroup "x,y,z" unitcell [{      9.392530     0.000000     0.296934 }, {      0.163377     7.789698     0.470322 }, {      0.000000     0.000000     0.000000 }]
Fe     0.140916     3.955671    15.089067     1.590591
Fe     4.837181     3.955671    15.237534     1.590591
Fe     9.470210     6.452955    13.381242     1.638641
Fe     4.773945     6.452955    13.232775     1.638641
Fe     0.049941     1.249024    16.198848     1.490176
Fe     4.746206     1.249024    16.347315     1.490176
Fe     0.017396     1.297421    10.877901     1.628432
Fe     4.713661     1.297421    11.026368     1.628432
Fe     0.103221     3.868232     9.257379     1.608132
Fe     4.799486     3.868232     9.405846     1.608132
Fe     9.313171     6.510933     7.748408     1.562145
Fe     4.616906     6.510933     7.599941     1.562144
Sb     2.405143     1.329522    13.702211     2.001440
Sb     7.101408     1.329522    13.850678     2.001440
Sb     2.402834     3.925213    12.095781     2.003011
Sb     7.099099     3.925213    12.244248     2.003011
Sb     2.255632     6.497878    15.863374     1.926664
Sb     6.951897     6.497878    16.011841     1.926664
Sb     2.416655     6.513411    10.318101     1.986986
Sb     7.112920     6.513411    10.466568     1.986987
Sb     2.376916     1.248315     7.962095     1.942299
Sb     7.073181     1.248315     8.110562     1.942299
Sb     2.524489     4.038211     6.694122     1.780208
Sb     7.220754     4.038211     6.842589     1.780209
O      3.756129     0.485882    12.545023    -0.943147
O      8.452394     0.485882    12.693490    -0.943147
O      3.815085     3.106555    10.917326    -0.954267
O      8.511350     3.106555    11.065793    -0.954267
O      3.852045     5.725895    14.930401    -0.954294
O      8.548310     5.725895    15.078868    -0.954294
O      3.743901     5.629724     9.099044    -0.957483
O      8.440166     5.629724     9.247511    -0.957483
O      3.718915     0.399432     6.807929    -0.846907
O      8.415180     0.399432     6.956396    -0.846906
O      4.083257     2.899030    16.662130    -0.843662
O      8.779522     2.899030    16.810597    -0.843662
O      1.009576     2.133949    14.809708    -0.945470
O      5.705841     2.133949    14.958175    -0.945470
O      0.994502     4.725137    13.245535    -0.959346
O      5.690767     4.725137    13.394002    -0.959346
O      1.200551     7.505070    17.170670    -0.869942
O      5.896816     7.505070    17.319137    -0.869943
O      1.009572     7.283804    11.440928    -0.939484
O      5.705837     7.283804    11.589395    -0.939484
O      0.991949     2.076772     9.143418    -0.945808
O      5.688214     2.076772     9.291885    -0.945807
O      0.978173     4.784495     7.531069    -0.937154
O      5.674438     4.784495     7.679536    -0.937155
O      3.333416     3.113176    13.683332    -0.827248
O      8.029681     3.113176    13.831799    -0.827248
O      3.348475     5.712972    11.954151    -0.863548
O      8.044740     5.712972    12.102618    -0.863548
O      3.260484     0.454490    15.319820    -0.884458
O      7.956749     0.454490    15.468287    -0.884458
O      3.246956     0.475405     9.652233    -0.861158
O      7.943221     0.475405     9.800700    -0.861158
O      3.442816     3.031937     8.091339    -0.829468
O      8.139081     3.031937     8.239806    -0.829468
O      3.542252     5.459955     5.988366    -0.770881
O      8.238517     5.459955     6.136833    -0.770882
O      1.480680     2.111273    12.056855    -0.870632
O      6.176945     2.111273    12.205322    -0.870632
O      1.512532     4.693550    10.414303    -0.877950
O      6.208797     4.693550    10.562770    -0.877950
O      1.524619     7.352244    14.218422    -0.886096
O      6.220884     7.352244    14.366889    -0.886096
O      1.523144     7.272485     8.552511    -0.887623
O      6.219409     7.272485     8.700978    -0.887623
O      1.767720     2.307605     6.211817    -0.690522
O      6.463985     2.307605     6.360284    -0.690522
O      1.486204     4.794240    16.193404    -0.812180
O      6.182469     4.794240    16.341871    -0.812180
 
 Chargemol version 3.5 September 26, 2017.
See ddec.sourceforge.net for latest version.
 
Computational parameters:
Number of radial integration shells =    100
Cutoff radius (pm) =    500
Error in the integrated total number of electrons before renormalization (e) =    1.9783E-03
Charge convergence tolerance =    1.0000E-05
Minimum radius for electron cloud penetration fitting (pm) =    200
Minimum decay exponent for electron density of buried atom tails =   1.7500
Maximum decay exponent for electron density of buried atom tails =  2.5000
Number of iterations to convergence =      7
 
The following XYZ coordinates are in angstroms. The atomic dipoles and quadrupoles are in atomic units.
atom number, atomic symbol, x, y, z, net_charge, dipole_x, dipole_y, dipole_z, dipole_mag, Qxy, Qxz, Qyz,Q(x^2-y^2), Q(3z^2 - R^2), three eigenvalues of traceless quadrupole moment tensor
    1 Fe     0.140916     3.955671    15.089067     1.590591    -0.007938    -0.005935    -0.001994     0.010110    -0.042693     0.019139     0.020374     0.071596     0.117754    -0.081226     0.030976     0.050250
    2 Fe     4.837181     3.955671    15.237534     1.590591    -0.007938    -0.005935    -0.001994     0.010110    -0.042693     0.019139     0.020374     0.071596     0.117754    -0.081226     0.030976     0.050250
    3 Fe     9.470210     6.452955    13.381242     1.638641    -0.003980     0.007147    -0.003650     0.008958     0.020632     0.008277    -0.011379    -0.009942     0.003434    -0.028125     0.006575     0.021551
    4 Fe     4.773945     6.452955    13.232775     1.638641    -0.003980     0.007147    -0.003650     0.008958     0.020632     0.008277    -0.011379    -0.009942     0.003434    -0.028125     0.006575     0.021551
    5 Fe     0.049941     1.249024    16.198848     1.490176    -0.012885    -0.013701     0.046427     0.050092     0.070643     0.006221    -0.040902     0.085833     0.265558    -0.133694     0.034987     0.098707
    6 Fe     4.746206     1.249024    16.347315     1.490176    -0.012885    -0.013701     0.046427     0.050092     0.070643     0.006221    -0.040902     0.085833     0.265557    -0.133694     0.034987     0.098707
    7 Fe     0.017396     1.297421    10.877901     1.628432    -0.001296    -0.005578    -0.000671     0.005766     0.007153     0.021138    -0.002858     0.001657     0.025125    -0.022582    -0.002011     0.024594
    8 Fe     4.713661     1.297421    11.026368     1.628432    -0.001296    -0.005578    -0.000671     0.005766     0.007153     0.021138    -0.002858     0.001657     0.025125    -0.022582    -0.002011     0.024594
    9 Fe     0.103221     3.868232     9.257379     1.608132    -0.008219     0.003413    -0.005372     0.010395     0.010483     0.015129    -0.001505    -0.017180    -0.009077    -0.022789     0.005720     0.017070
   10 Fe     4.799486     3.868232     9.405846     1.608132    -0.008219     0.003413    -0.005372     0.010396     0.010483     0.015129    -0.001505    -0.017180    -0.009077    -0.022789     0.005720     0.017070
   11 Fe     9.313171     6.510933     7.748408     1.562145     0.050399     0.000335    -0.048690     0.070077     0.032904    -0.043181    -0.047334     0.027973     0.302404    -0.087955    -0.040888     0.128842
   12 Fe     4.616906     6.510933     7.599941     1.562144     0.050398     0.000335    -0.048690     0.070077     0.032904    -0.043181    -0.047334     0.027974     0.302404    -0.087954    -0.040888     0.128842
   13 Sb     2.405143     1.329522    13.702211     2.001440    -0.002700    -0.017286    -0.005775     0.018424     0.021138     0.076492     0.091721     0.112765    -0.008968    -0.129627    -0.007945     0.137572
   14 Sb     7.101408     1.329522    13.850678     2.001440    -0.002700    -0.017286    -0.005775     0.018424     0.021138     0.076492     0.091721     0.112765    -0.008968    -0.129627    -0.007945     0.137572
   15 Sb     2.402834     3.925213    12.095781     2.003011     0.008115     0.005099    -0.020778     0.022882     0.047513     0.041286     0.080226     0.145039     0.059388    -0.129167     0.005948     0.123219
   16 Sb     7.099099     3.925213    12.244248     2.003011     0.008115     0.005099    -0.020778     0.022882     0.047513     0.041286     0.080226     0.145039     0.059387    -0.129167     0.005948     0.123219
   17 Sb     2.255632     6.497878    15.863374     1.926664     0.069267    -0.023694     0.062757     0.096425    -0.030682     0.134403    -0.055184     0.145450     0.462619    -0.160030    -0.081129     0.241159
   18 Sb     6.951897     6.497878    16.011841     1.926664     0.069267    -0.023694     0.062757     0.096425    -0.030682     0.134403    -0.055184     0.145450     0.462619    -0.160030    -0.081129     0.241159
   19 Sb     2.416655     6.513411    10.318101     1.986986     0.003407    -0.015560     0.004488     0.016549     0.030465     0.073558     0.079631     0.106385    -0.004161    -0.113234    -0.020158     0.133392
   20 Sb     7.112920     6.513411    10.466568     1.986987     0.003407    -0.015560     0.004488     0.016549     0.030465     0.073559     0.079631     0.106385    -0.004162    -0.113234    -0.020158     0.133392
   21 Sb     2.376916     1.248315     7.962095     1.942299    -0.002870     0.004016     0.003729     0.006186     0.090273     0.084496     0.085914     0.245178     0.211487    -0.200489    -0.005957     0.206446
   22 Sb     7.073181     1.248315     8.110562     1.942299    -0.002870     0.004016     0.003729     0.006187     0.090273     0.084497     0.085914     0.245179     0.211486    -0.200489    -0.005957     0.206446
   23 Sb     2.524489     4.038211     6.694122     1.780208    -0.025036     0.023685    -0.041350     0.053829    -0.100782     0.068583     0.049990     0.203491     0.543824    -0.246274     0.040257     0.206017
   24 Sb     7.220754     4.038211     6.842589     1.780209    -0.025036     0.023685    -0.041350     0.053829    -0.100781     0.068583     0.049989     0.203492     0.543824    -0.246273     0.040256     0.206017
   25 O      3.756129     0.485882    12.545023    -0.943147    -0.005668    -0.011376     0.010150     0.016266     0.006922     0.009958     0.036422     0.062583     0.006737    -0.055422     0.015348     0.040074
   26 O      8.452394     0.485882    12.693490    -0.943147    -0.005668    -0.011376     0.010150     0.016266     0.006922     0.009958     0.036422     0.062583     0.006737    -0.055422     0.015348     0.040074
   27 O      3.815085     3.106555    10.917326    -0.954267    -0.032519     0.001584     0.020185     0.038307     0.011854     0.029399     0.029785     0.037569     0.025326    -0.041568    -0.010876     0.052445
   28 O      8.511350     3.106555    11.065793    -0.954267    -0.032519     0.001584     0.020186     0.038307     0.011854     0.029399     0.029785     0.037569     0.025326    -0.041569    -0.010876     0.052445
   29 O      3.852045     5.725895    14.930401    -0.954294    -0.008614    -0.003955     0.016657     0.019165     0.006020    -0.013484     0.033568     0.006390     0.045473    -0.038542    -0.001059     0.039600
   30 O      8.548310     5.725895    15.078868    -0.954294    -0.008614    -0.003955     0.016657     0.019165     0.006020    -0.013484     0.033568     0.006390     0.045473    -0.038542    -0.001059     0.039600
   31 O      3.743901     5.629724     9.099044    -0.957483    -0.012532    -0.021322     0.024709     0.034960     0.015644    -0.008785     0.029961     0.050602    -0.025494    -0.049356     0.015358     0.033998
   32 O      8.440166     5.629724     9.247511    -0.957483    -0.012531    -0.021322     0.024709     0.034960     0.015644    -0.008785     0.029961     0.050602    -0.025494    -0.049356     0.015358     0.033999
   33 O      3.718915     0.399432     6.807929    -0.846907     0.038801     0.093829    -0.122180     0.158863     0.003469    -0.021604     0.019140     0.052569     0.088920    -0.047345     0.001006     0.046339
   34 O      8.415180     0.399432     6.956396    -0.846906     0.038801     0.093829    -0.122181     0.158863     0.003468    -0.021605     0.019141     0.052569     0.088920    -0.047345     0.001006     0.046339
   35 O      4.083257     2.899030    16.662130    -0.843662    -0.115712     0.091992     0.129567     0.196569    -0.001007    -0.008956     0.057026     0.080575    -0.032907    -0.081331     0.031421     0.049911
   36 O      8.779522     2.899030    16.810597    -0.843662    -0.115712     0.091992     0.129567     0.196569    -0.001007    -0.008956     0.057027     0.080575    -0.032906    -0.081332     0.031421     0.049911
   37 O      1.009576     2.133949    14.809708    -0.945470     0.007581     0.031529    -0.012782     0.034856     0.017360     0.022446     0.019464     0.048176     0.063535    -0.042881    -0.005421     0.048303
   38 O      5.705841     2.133949    14.958175    -0.945470     0.007581     0.031529    -0.012782     0.034856     0.017360     0.022446     0.019464     0.048176     0.063535    -0.042881    -0.005421     0.048303
   39 O      0.994502     4.725137    13.245535    -0.959346    -0.011775    -0.040234     0.021902     0.047298     0.011996     0.001453     0.026826     0.043021    -0.054542    -0.042951     0.007595     0.035356
   40 O      5.690767     4.725137    13.394002    -0.959346    -0.011775    -0.040234     0.021902     0.047298     0.011996     0.001453     0.026826     0.043021    -0.054542    -0.042951     0.007595     0.035356
   41 O      1.200551     7.505070    17.170670    -0.869942    -0.007945    -0.042039     0.138756     0.145202    -0.017714    -0.034654     0.019132     0.017211     0.023439    -0.028461    -0.023092     0.051554
   42 O      5.896816     7.505070    17.319137    -0.869943    -0.007945    -0.042039     0.138756     0.145203    -0.017714    -0.034654     0.019132     0.017211     0.023439    -0.028461    -0.023093     0.051554
   43 O      1.009572     7.283804    11.440928    -0.939484    -0.007706    -0.006081     0.018293     0.020760     0.003329     0.008331     0.038698     0.060390     0.021427    -0.057109     0.019499     0.037610
   44 O      5.705837     7.283804    11.589395    -0.939484    -0.007706    -0.006081     0.018292     0.020760     0.003329     0.008331     0.038698     0.060390     0.021427    -0.057109     0.019499     0.037610
   45 O      0.991949     2.076772     9.143418    -0.945808     0.002547    -0.024824    -0.003657     0.025221     0.006918     0.028016     0.029358     0.066791    -0.013681    -0.051223    -0.003675     0.054898
   46 O      5.688214     2.076772     9.291885    -0.945807     0.002546    -0.024824    -0.003658     0.025221     0.006918     0.028016     0.029359     0.066791    -0.013681    -0.051223    -0.003674     0.054898
   47 O      0.978173     4.784495     7.531069    -0.937154    -0.016343     0.006205     0.005939     0.018463    -0.001032    -0.009990     0.031828     0.045080     0.037824    -0.046341     0.011745     0.034596
   48 O      5.674438     4.784495     7.679536    -0.937155    -0.016343     0.006205     0.005938     0.018463    -0.001032    -0.009990     0.031828     0.045080     0.037824    -0.046341     0.011745     0.034596
   49 O      3.333416     3.113176    13.683332    -0.827248     0.070422     0.037857     0.062538     0.101506    -0.004800    -0.015462    -0.044456    -0.045991    -0.044684    -0.049428    -0.008472     0.057899
   50 O      8.029681     3.113176    13.831799    -0.827248     0.070422     0.037857     0.062538     0.101506    -0.004800    -0.015462    -0.044456    -0.045991    -0.044684    -0.049428    -0.008472     0.057899
   51 O      3.348475     5.712972    11.954151    -0.863548     0.034241     0.023288     0.027624     0.049778    -0.009609    -0.017330    -0.043433    -0.072893    -0.009289    -0.052654    -0.012857     0.065511
   52 O      8.044740     5.712972    12.102618    -0.863548     0.034241     0.023288     0.027624     0.049778    -0.009609    -0.017330    -0.043433    -0.072893    -0.009289    -0.052654    -0.012857     0.065511
   53 O      3.260484     0.454490    15.319820    -0.884458     0.026154    -0.004812     0.033886     0.043075    -0.005002    -0.008945    -0.037271    -0.074422     0.041115    -0.047364    -0.012885     0.060249
   54 O      7.956749     0.454490    15.468287    -0.884458     0.026154    -0.004812     0.033886     0.043075    -0.005002    -0.008945    -0.037271    -0.074422     0.041115    -0.047364    -0.012885     0.060249
   55 O      3.246956     0.475405     9.652233    -0.861158     0.043274     0.041729     0.031970     0.068088    -0.003301    -0.014727    -0.055068    -0.070520    -0.048154    -0.056098    -0.020289     0.076387
   56 O      7.943221     0.475405     9.800700    -0.861158     0.043274     0.041729     0.031971     0.068088    -0.003301    -0.014727    -0.055068    -0.070520    -0.048154    -0.056098    -0.020289     0.076387
   57 O      3.442816     3.031937     8.091339    -0.829468     0.051173    -0.028302     0.047011     0.075032    -0.029734    -0.019830    -0.049364    -0.073621     0.006481    -0.069671    -0.003008     0.072679
   58 O      8.139081     3.031937     8.239806    -0.829468     0.051173    -0.028302     0.047011     0.075032    -0.029734    -0.019830    -0.049364    -0.073621     0.006481    -0.069671    -0.003009     0.072679
   59 O      3.542252     5.459955     5.988366    -0.770881     0.063440     0.117834    -0.142506     0.195493     0.080211    -0.035614    -0.076639    -0.076159    -0.129019    -0.085402    -0.061907     0.147309
   60 O      8.238517     5.459955     6.136833    -0.770882     0.063440     0.117833    -0.142506     0.195493     0.080211    -0.035614    -0.076640    -0.076159    -0.129018    -0.085402    -0.061907     0.147309
   61 O      1.480680     2.111273    12.056855    -0.870632    -0.035925    -0.018526    -0.017892     0.044204    -0.014384    -0.033330    -0.037133    -0.072661    -0.014827    -0.066364     0.006130     0.060233
   62 O      6.176945     2.111273    12.205322    -0.870632    -0.035925    -0.018526    -0.017892     0.044204    -0.014384    -0.033330    -0.037133    -0.072661    -0.014827    -0.066364     0.006130     0.060233
   63 O      1.512532     4.693550    10.414303    -0.877950    -0.015382    -0.017533    -0.016345     0.028481    -0.014736    -0.022969    -0.041708    -0.054887    -0.023147    -0.056725    -0.001113     0.057838
   64 O      6.208797     4.693550    10.562770    -0.877950    -0.015382    -0.017533    -0.016345     0.028481    -0.014736    -0.022969    -0.041708    -0.054887    -0.023147    -0.056725    -0.001113     0.057838
   65 O      1.524619     7.352244    14.218422    -0.886096    -0.022537     0.005478    -0.045423     0.051002    -0.018164    -0.008705    -0.047075    -0.039657     0.006889    -0.049413    -0.009757     0.059170
   66 O      6.220884     7.352244    14.366889    -0.886096    -0.022537     0.005478    -0.045423     0.051002    -0.018164    -0.008705    -0.047075    -0.039657     0.006889    -0.049413    -0.009757     0.059170
   67 O      1.523144     7.272485     8.552511    -0.887623    -0.039349    -0.021856    -0.014126     0.047176    -0.000142    -0.008339    -0.044295    -0.100391     0.009474    -0.053651    -0.022164     0.075814
   68 O      6.219409     7.272485     8.700978    -0.887623    -0.039350    -0.021855    -0.014126     0.047176    -0.000142    -0.008339    -0.044296    -0.100391     0.009474    -0.053651    -0.022164     0.075815
   69 O      1.767720     2.307605     6.211817    -0.690522    -0.085990    -0.093086    -0.109392     0.167409     0.045316     0.020183    -0.013747    -0.120937    -0.118618    -0.072615    -0.023056     0.095671
   70 O      6.463985     2.307605     6.360284    -0.690522    -0.085990    -0.093086    -0.109392     0.167409     0.045316     0.020183    -0.013747    -0.120937    -0.118618    -0.072615    -0.023056     0.095671
   71 O      1.486204     4.794240    16.193404    -0.812180     0.030696    -0.112827     0.130489     0.175213     0.016299    -0.015368    -0.035366    -0.073120    -0.047664    -0.039793    -0.025831     0.065623
   72 O      6.182469     4.794240    16.341871    -0.812180     0.030696    -0.112827     0.130489     0.175213     0.016299    -0.015368    -0.035366    -0.073120    -0.047664    -0.039793    -0.025831     0.065623
 
The sperically averaged electron density of each atom fit to a function of the form exp(a - br) for r >=rmin_cloud_penetration
atom number,atomic symbol, x, y, z, a, b, Rsquared where a and b are in atomic units and Rsquared is the squared correlation coefficient
    1 Fe     0.140916     3.955671    15.089067    -0.577460     1.769570     0.999991
    2 Fe     4.837181     3.955671    15.237534    -0.577462     1.769570     0.999991
    3 Fe     9.470210     6.452955    13.381242    -0.706465     1.749987     0.999998
    4 Fe     4.773945     6.452955    13.232775    -0.706465     1.749987     0.999998
    5 Fe     0.049941     1.249024    16.198848    -0.573481     1.770289     0.999794
    6 Fe     4.746206     1.249024    16.347315    -0.573487     1.770288     0.999794
    7 Fe     0.017396     1.297421    10.877901    -0.733110     1.747624     0.999997
    8 Fe     4.713661     1.297421    11.026368    -0.733110     1.747624     0.999997
    9 Fe     0.103221     3.868232     9.257379    -0.687567     1.749532     0.999997
   10 Fe     4.799486     3.868232     9.405846    -0.687567     1.749532     0.999997
   11 Fe     9.313171     6.510933     7.748408    -0.623945     1.768202     0.999983
   12 Fe     4.616906     6.510933     7.599941    -0.623948     1.768201     0.999983
   13 Sb     2.405143     1.329522    13.702211     0.266932     1.751502     0.999998
   14 Sb     7.101408     1.329522    13.850678     0.266932     1.751502     0.999998
   15 Sb     2.402834     3.925213    12.095781     0.254495     1.749886     0.999997
   16 Sb     7.099099     3.925213    12.244248     0.254495     1.749886     0.999997
   17 Sb     2.255632     6.497878    15.863374     0.443897     1.785261     0.999952
   18 Sb     6.951897     6.497878    16.011841     0.443898     1.785262     0.999952
   19 Sb     2.416655     6.513411    10.318101     0.281498     1.752026     0.999997
   20 Sb     7.112920     6.513411    10.466568     0.281498     1.752026     0.999997
   21 Sb     2.376916     1.248315     7.962095     0.365306     1.767139     0.999989
   22 Sb     7.073181     1.248315     8.110562     0.365307     1.767139     0.999989
   23 Sb     2.524489     4.038211     6.694122     0.561440     1.801025     0.999875
   24 Sb     7.220754     4.038211     6.842589     0.561451     1.801027     0.999875
   25 O      3.756129     0.485882    12.545023    -0.807816     1.750042     0.999999
   26 O      8.452394     0.485882    12.693490    -0.807816     1.750042     0.999999
   27 O      3.815085     3.106555    10.917326    -0.799213     1.749393     0.999998
   28 O      8.511350     3.106555    11.065793    -0.799212     1.749393     0.999998
   29 O      3.852045     5.725895    14.930401    -0.773312     1.754644     0.999999
   30 O      8.548310     5.725895    15.078868    -0.773311     1.754644     0.999999
   31 O      3.743901     5.629724     9.099044    -0.714179     1.756129     0.999995
   32 O      8.440166     5.629724     9.247511    -0.714178     1.756129     0.999995
   33 O      3.718915     0.399432     6.807929    -1.152563     1.742195     0.999717
   34 O      8.415180     0.399432     6.956396    -1.152547     1.742197     0.999717
   35 O      4.083257     2.899030    16.662130    -1.456969     1.703198     0.997543
   36 O      8.779522     2.899030    16.810597    -1.456961     1.703200     0.997543
   37 O      1.009576     2.133949    14.809708    -0.754388     1.755316     0.999998
   38 O      5.705841     2.133949    14.958175    -0.754388     1.755316     0.999998
   39 O      0.994502     4.725137    13.245535    -0.763752     1.752445     0.999999
   40 O      5.690767     4.725137    13.394002    -0.763752     1.752445     0.999999
   41 O      1.200551     7.505070    17.170670    -1.570149     1.691787     0.995317
   42 O      5.896816     7.505070    17.319137    -1.570151     1.691786     0.995317
   43 O      1.009572     7.283804    11.440928    -0.814334     1.749862     0.999998
   44 O      5.705837     7.283804    11.589395    -0.814334     1.749862     0.999998
   45 O      0.991949     2.076772     9.143418    -0.797333     1.751368     0.999998
   46 O      5.688214     2.076772     9.291885    -0.797334     1.751368     0.999998
   47 O      0.978173     4.784495     7.531069    -0.748020     1.758015     0.999998
   48 O      5.674438     4.784495     7.679536    -0.748020     1.758015     0.999998
   49 O      3.333416     3.113176    13.683332    -0.902150     1.751809     0.999998
   50 O      8.029681     3.113176    13.831799    -0.902150     1.751809     0.999998
   51 O      3.348475     5.712972    11.954151    -0.872081     1.750378     0.999998
   52 O      8.044740     5.712972    12.102618    -0.872081     1.750378     0.999998
   53 O      3.260484     0.454490    15.319820    -0.792035     1.756265     0.999997
   54 O      7.956749     0.454490    15.468287    -0.792034     1.756265     0.999997
   55 O      3.246956     0.475405     9.652233    -0.841100     1.753153     0.999998
   56 O      7.943221     0.475405     9.800700    -0.841099     1.753153     0.999998
   57 O      3.442816     3.031937     8.091339    -0.840248     1.758243     0.999995
   58 O      8.139081     3.031937     8.239806    -0.840247     1.758243     0.999995
   59 O      3.542252     5.459955     5.988366    -1.965646     1.649038     0.990296
   60 O      8.238517     5.459955     6.136833    -1.965620     1.649043     0.990296
   61 O      1.480680     2.111273    12.056855    -0.866954     1.750475     0.999999
   62 O      6.176945     2.111273    12.205322    -0.866953     1.750475     0.999999
   63 O      1.512532     4.693550    10.414303    -0.848435     1.750778     0.999998
   64 O      6.208797     4.693550    10.562770    -0.848435     1.750778     0.999998
   65 O      1.524619     7.352244    14.218422    -0.778057     1.756824     0.999998
   66 O      6.220884     7.352244    14.366889    -0.778057     1.756824     0.999998
   67 O      1.523144     7.272485     8.552511    -0.803509     1.755414     0.999998
   68 O      6.219409     7.272485     8.700978    -0.803509     1.755414     0.999998
   69 O      1.767720     2.307605     6.211817    -1.759663     1.684398     0.996528
   70 O      6.463985     2.307605     6.360284    -1.759655     1.684400     0.996528
   71 O      1.486204     4.794240    16.193404    -1.143264     1.746514     0.999899
   72 O      6.182469     4.794240    16.341871    -1.143264     1.746514     0.999899
 
 2023/12/02  15:35:21
