   30
jmolscript: load "" {1 1 1} spacegroup "x,y,z" unitcell [{      3.123400     0.000000     0.000000 }, {      0.000000     6.388300     0.000000 }, {      0.000000     0.000000     0.000000 }]
Ru     0.000000     0.001227    14.292360     1.393259
Ru     0.000000     3.197612    17.360800     1.464280
Ru     0.000000    -0.005737    20.582960     1.451065
Ru     0.000000     3.193147    23.814280     1.462822
Ru     0.000000    -0.007717    26.874600     1.392598
Ru     1.561700     3.195440    14.083400     1.532874
Ru     1.561700     0.003980    17.404040     1.429375
Ru     1.561700     3.188516    20.588720     1.446587
Ru     1.561700    -0.000511    23.761720     1.433205
Ru     1.561700     3.186139    27.087000     1.534441
O      0.000000     3.195747    12.985560    -0.633472
O      0.000000     0.002255    16.177120    -0.690798
O      0.000000     3.191147    19.330680    -0.728767
O      0.000000    -0.002664    22.528040    -0.720861
O      0.000000     3.189697    25.769480    -0.756680
O      0.000000     3.186695    28.186800    -0.634049
O      0.000000     3.195683    15.403000    -0.755060
O      0.000000     0.000926    18.637760    -0.719969
O      0.000000     3.190604    21.844600    -0.728308
O      0.000000    -0.001757    24.990600    -0.692601
O      1.561700     1.213726    14.132880    -0.774155
O      1.561700     4.433634    17.372600    -0.730418
O      1.561700     1.237446    20.585480    -0.728732
O      1.561700     4.429954    23.800880    -0.731697
O      1.561700     1.204904    27.035000    -0.772762
O      1.561700     5.177014    14.133560    -0.774941
O      1.561700     1.960467    17.371320    -0.733145
O      1.561700     5.140914    20.584080    -0.728208
O      1.561700     1.956014    23.800600    -0.731593
O      1.561700     5.168346    27.033560    -0.774292
 
 Chargemol version 3.5 September 26, 2017.
See ddec.sourceforge.net for latest version.
 
Computational parameters:
Number of radial integration shells =    100
Cutoff radius (pm) =    500
Error in the integrated total number of electrons before renormalization (e) =    1.0965E-03
Charge convergence tolerance =    1.0000E-05
Minimum radius for electron cloud penetration fitting (pm) =    200
Minimum decay exponent for electron density of buried atom tails =   1.7500
Maximum decay exponent for electron density of buried atom tails =  2.5000
Number of iterations to convergence =      7
 
The following XYZ coordinates are in angstroms. The atomic dipoles and quadrupoles are in atomic units.
atom number, atomic symbol, x, y, z, net_charge, dipole_x, dipole_y, dipole_z, dipole_mag, Qxy, Qxz, Qyz,Q(x^2-y^2), Q(3z^2 - R^2), three eigenvalues of traceless quadrupole moment tensor
    1 Ru     0.000000     0.001227    14.292360     1.393259    -0.000000    -0.000222    -0.079001     0.079001     0.000000    -0.000000     0.000416     0.129899     0.728967    -0.186444    -0.056545     0.242989
    2 Ru     0.000000     3.197612    17.360800     1.464280    -0.000000    -0.001801     0.002964     0.003468     0.000000     0.000000     0.001723     0.099595     0.406946    -0.117633    -0.018027     0.135660
    3 Ru     0.000000    -0.005737    20.582960     1.451065     0.000000     0.000701     0.000502     0.000862     0.000000     0.000000     0.000923     0.074943     0.385929    -0.101797    -0.026850     0.128647
    4 Ru     0.000000     3.193147    23.814280     1.462822    -0.000000    -0.000686    -0.002599     0.002688    -0.000000    -0.000000    -0.000343     0.099303     0.418231    -0.119357    -0.020053     0.139411
    5 Ru     0.000000    -0.007717    26.874600     1.392598     0.000000    -0.001378     0.078734     0.078746    -0.000000    -0.000000    -0.003004     0.127083     0.740484    -0.186976    -0.059872     0.246849
    6 Ru     1.561700     3.195440    14.083400     1.532874    -0.000000     0.001347     0.001672     0.002147     0.000000    -0.000000     0.000014    -0.062835    -0.051299    -0.022867    -0.017100     0.039967
    7 Ru     1.561700     0.003980    17.404040     1.429375     0.000000     0.000848     0.005177     0.005246     0.000000    -0.000000     0.000900    -0.121287    -0.264999    -0.088337    -0.016477     0.104814
    8 Ru     1.561700     3.188516    20.588720     1.446587     0.000000     0.001515    -0.001484     0.002121     0.000000    -0.000000     0.002194    -0.170960    -0.294654    -0.098239    -0.036371     0.134610
    9 Ru     1.561700    -0.000511    23.761720     1.433205     0.000000    -0.000649    -0.004496     0.004543    -0.000000     0.000000    -0.000319    -0.120979    -0.258985    -0.086329    -0.017325     0.103654
   10 Ru     1.561700     3.186139    27.087000     1.534441     0.000000     0.001134    -0.003549     0.003726    -0.000000    -0.000000    -0.001159    -0.061917    -0.054496    -0.021876    -0.018188     0.040064
   11 O      0.000000     3.195747    12.985560    -0.633472    -0.000000    -0.000428    -0.107981     0.107982    -0.000000     0.000000    -0.000200    -0.058013     0.169235    -0.057212     0.000800     0.056412
   12 O      0.000000     0.002255    16.177120    -0.690798     0.000000     0.000071    -0.007199     0.007200    -0.000000    -0.000000     0.000471    -0.071868    -0.011501    -0.034017    -0.003839     0.037856
   13 O      0.000000     3.191147    19.330680    -0.728767     0.000000    -0.000535    -0.009510     0.009525     0.000000    -0.000000     0.000947    -0.086407    -0.082410    -0.029468    -0.027481     0.056949
   14 O      0.000000    -0.002664    22.528040    -0.720861     0.000000    -0.000056    -0.004951     0.004951     0.000000    -0.000000     0.000100    -0.077128    -0.074778    -0.026101    -0.024926     0.051027
   15 O      0.000000     3.189697    25.769480    -0.756680    -0.000000     0.000223    -0.010353     0.010355     0.000000    -0.000000     0.000547    -0.037718    -0.070517    -0.023511    -0.007106     0.030617
   16 O      0.000000     3.186695    28.186800    -0.634049     0.000000    -0.000090     0.108101     0.108101     0.000000     0.000000     0.000635    -0.056261     0.170103    -0.056481    -0.000227     0.056708
   17 O      0.000000     3.195683    15.403000    -0.755060    -0.000000    -0.000241     0.008218     0.008222     0.000000    -0.000000     0.000247    -0.037711    -0.068062    -0.022688    -0.007512     0.030200
   18 O      0.000000     0.000926    18.637760    -0.719969     0.000000     0.000565     0.003695     0.003738    -0.000000     0.000000     0.000217    -0.077000    -0.076329    -0.025778    -0.025444     0.051222
   19 O      0.000000     3.190604    21.844600    -0.728308     0.000000    -0.000574     0.006834     0.006858    -0.000000     0.000000     0.000508    -0.083848    -0.085539    -0.028516    -0.027667     0.056184
   20 O      0.000000    -0.001757    24.990600    -0.692601     0.000000     0.000320     0.007040     0.007047     0.000000     0.000000     0.000288    -0.072735    -0.007046    -0.035193    -0.002351     0.037544
   21 O      1.561700     1.213726    14.132880    -0.774155    -0.000000     0.015562     0.014968     0.021592    -0.000000     0.000000     0.002801    -0.022847     0.154110    -0.037109    -0.014381     0.051489
   22 O      1.561700     4.433634    17.372600    -0.730418    -0.000000     0.006530     0.000844     0.006585    -0.000000    -0.000000     0.000148    -0.015540     0.177902    -0.037420    -0.021881     0.059301
   23 O      1.561700     1.237446    20.585480    -0.728732     0.000000     0.009190    -0.001026     0.009247     0.000000    -0.000000     0.000406    -0.009071     0.169370    -0.032764    -0.023695     0.056459
   24 O      1.561700     4.429954    23.800880    -0.731697     0.000000     0.004774    -0.001322     0.004954     0.000000     0.000000     0.000786    -0.012787     0.179984    -0.036391    -0.023611     0.060002
   25 O      1.561700     1.204904    27.035000    -0.772762     0.000000     0.015025    -0.015133     0.021325     0.000000     0.000000    -0.003266    -0.022653     0.152159    -0.036686    -0.014198     0.050884
   26 O      1.561700     5.177014    14.133560    -0.774941    -0.000000    -0.014929     0.014673     0.020933     0.000000     0.000000    -0.002731    -0.021546     0.157381    -0.037003    -0.015567     0.052570
   27 O      1.561700     1.960467    17.371320    -0.733145    -0.000000    -0.005926     0.000213     0.005930     0.000000    -0.000000     0.000521    -0.013250     0.182454    -0.037034    -0.023787     0.060821
   28 O      1.561700     5.140914    20.584080    -0.728208     0.000000    -0.007966    -0.001086     0.008040    -0.000000    -0.000000     0.001047    -0.007963     0.168765    -0.032109    -0.024160     0.056268
   29 O      1.561700     1.956014    23.800600    -0.731593     0.000000    -0.005370    -0.001132     0.005488    -0.000000    -0.000000    -0.001227    -0.014140     0.179345    -0.036961    -0.022839     0.059800
   30 O      1.561700     5.168346    27.033560    -0.774292     0.000000    -0.014815    -0.016520     0.022190    -0.000000    -0.000000     0.001832    -0.023099     0.158118    -0.037903    -0.014853     0.052756
 
The sperically averaged electron density of each atom fit to a function of the form exp(a - br) for r >=rmin_cloud_penetration
atom number,atomic symbol, x, y, z, a, b, Rsquared where a and b are in atomic units and Rsquared is the squared correlation coefficient
    1 Ru     0.000000     0.001227    14.292360     1.131527     2.124101     0.999841
    2 Ru     0.000000     3.197612    17.360800     0.824014     2.062426     0.999437
    3 Ru     0.000000    -0.005737    20.582960     0.853857     2.065743     0.999476
    4 Ru     0.000000     3.193147    23.814280     0.827736     2.062844     0.999447
    5 Ru     0.000000    -0.007717    26.874600     1.168839     2.131100     0.999741
    6 Ru     1.561700     3.195440    14.083400     1.180700     2.170321     0.999889
    7 Ru     1.561700     0.003980    17.404040     0.869636     2.065719     0.999450
    8 Ru     1.561700     3.188516    20.588720     0.856192     2.065757     0.999471
    9 Ru     1.561700    -0.000511    23.761720     0.875555     2.066719     0.999436
   10 Ru     1.561700     3.186139    27.087000     1.219550     2.177777     0.999889
   11 O      0.000000     3.195747    12.985560    -1.884833     1.628758     0.989357
   12 O      0.000000     0.002255    16.177120    -0.828334     1.752515     0.999997
   13 O      0.000000     3.191147    19.330680    -0.806386     1.749980     0.999998
   14 O      0.000000    -0.002664    22.528040    -0.809616     1.750218     0.999998
   15 O      0.000000     3.189697    25.769480    -0.738546     1.757231     0.999991
   16 O      0.000000     3.186695    28.186800    -1.795685     1.646122     0.989585
   17 O      0.000000     3.195683    15.403000    -0.730596     1.757726     0.999992
   18 O      0.000000     0.000926    18.637760    -0.811580     1.750050     0.999998
   19 O      0.000000     3.190604    21.844600    -0.805975     1.750183     0.999998
   20 O      0.000000    -0.001757    24.990600    -0.830247     1.752495     0.999997
   21 O      1.561700     1.213726    14.132880    -0.823938     1.766252     0.999824
   22 O      1.561700     4.433634    17.372600    -0.815445     1.749680     0.999998
   23 O      1.561700     1.237446    20.585480    -0.809501     1.749774     0.999998
   24 O      1.561700     4.429954    23.800880    -0.810228     1.749850     0.999998
   25 O      1.561700     1.204904    27.035000    -0.813616     1.768492     0.999880
   26 O      1.561700     5.177014    14.133560    -0.826819     1.765618     0.999826
   27 O      1.561700     1.960467    17.371320    -0.812730     1.749684     0.999998
   28 O      1.561700     5.140914    20.584080    -0.815297     1.749741     0.999998
   29 O      1.561700     1.956014    23.800600    -0.814071     1.749853     0.999998
   30 O      1.561700     5.168346    27.033560    -0.806691     1.769262     0.999875
 
 2024/04/04  17:47:21
