   55
jmolscript: load "" {1 1 1} spacegroup "x,y,z" unitcell [{     12.341300     0.000000     0.000000 }, {      0.000000    12.825400     0.000000 }, {      0.000000     0.000000    20.000000 }]
C      1.257258     2.131440     9.999680     0.000122
C      0.000000     0.002206     9.996300    -0.015296
C      1.258368     0.703563     9.997800     0.003208
C     -0.000012     2.840429     9.999800    -0.008420
C      3.794617     2.182101    10.005800     0.026540
C      2.536643     0.023778     9.999420     0.034850
C      3.738883     0.771089    10.003140    -0.170443
C      2.496312     2.855280    10.003640     0.026391
C      4.998535     3.022472    10.011740     0.023490
C      8.546671     2.182101    10.005780     0.026506
C      8.602404     0.771114    10.003140    -0.170467
C      7.342753     3.022485    10.011760     0.023515
C     11.084042     2.131466     9.999660     0.000274
C      9.804620     0.023791     9.999440     0.034869
C     11.082932     0.703576     9.997800     0.003167
C      9.844988     2.855280    10.003620     0.026297
C      1.218481     6.410994    10.001720     0.005783
C      0.000000     4.262265    10.000900    -0.005003
C      1.218432     4.988798    10.002600     0.005179
C     -0.000012     7.137797     9.999280    -0.006257
C      3.648088     6.407749    10.012580     0.105325
C      2.446009     4.272769    10.006240    -0.025304
C      3.648360     4.991133    10.012600     0.105278
C      2.446095     7.126934    10.005620    -0.024081
C      8.693199     6.407762    10.012580     0.105341
C      8.692928     4.991158    10.012600     0.105268
C     11.122794     6.411007    10.001720     0.005790
C      9.895267     4.272769    10.006220    -0.025193
C     11.122843     4.988798    10.002600     0.005091
C      9.895193     7.126947    10.005620    -0.024110
C      1.258837    10.697410     9.996880     0.001522
C     -0.000012     8.560134     9.998020    -0.011530
C      1.257430     9.269212     9.998340     0.004020
C     -0.000012    11.398767     9.995660    -0.014980
C      3.739587    10.628768    10.002400    -0.170629
C      2.496448     8.544602    10.002760     0.023670
C      3.794950     9.217525    10.004880     0.026471
C      2.537161    11.377002     9.998860     0.034132
C      4.998510     8.375551    10.011100     0.023770
C      8.601689    10.628768    10.002420    -0.170697
C      7.342753     8.375563    10.011080     0.023821
C      8.546313     9.217525    10.004900     0.026450
C     11.082426    10.697410     9.996900     0.001506
C      9.844828     8.544602    10.002760     0.023658
C     11.083845     9.269212     9.998360     0.004071
C      9.804101    11.376989     9.998880     0.034173
H      4.691237     0.242554    10.005000     0.104375
H      7.650051     0.242541    10.005000     0.104391
H      4.692347    11.156815    10.005540     0.104943
H      7.648928    11.156815    10.005560     0.104974
Fe     6.170650     5.699031    10.019880     0.467978
N      4.875542     4.336832    10.016060    -0.235969
N      4.875418     7.061550    10.015680    -0.235895
N      7.465746     4.336858    10.016060    -0.235978
N      7.465869     7.061563    10.015680    -0.235961
 
 Chargemol version 3.5 September 26, 2017.
See ddec.sourceforge.net for latest version.
 
Computational parameters:
Number of radial integration shells =    100
Cutoff radius (pm) =    500
Error in the integrated total number of electrons before renormalization (e) =    7.4481E-04
Charge convergence tolerance =    1.0000E-05
Minimum radius for electron cloud penetration fitting (pm) =    200
Minimum decay exponent for electron density of buried atom tails =   1.7500
Maximum decay exponent for electron density of buried atom tails =  2.5000
Number of iterations to convergence =      7
 
The following XYZ coordinates are in angstroms. The atomic dipoles and quadrupoles are in atomic units.
atom number, atomic symbol, x, y, z, net_charge, dipole_x, dipole_y, dipole_z, dipole_mag, Qxy, Qxz, Qyz,Q(x^2-y^2), Q(3z^2 - R^2), three eigenvalues of traceless quadrupole moment tensor
    1 C      1.257258     2.131440     9.999680     0.000122    -0.002599     0.000845    -0.000082     0.002734    -0.002116    -0.000172    -0.000108     0.004989     0.002272    -0.003656     0.000756     0.002900
    2 C      0.000000     0.002206     9.996300    -0.015296    -0.000001     0.003793     0.000207     0.003799    -0.000006     0.000017    -0.000302    -0.003133    -0.017300    -0.005776     0.001317     0.004459
    3 C      1.258368     0.703563     9.997800     0.003208    -0.000214    -0.004463     0.000256     0.004475     0.002179     0.000196     0.000080    -0.008797     0.014897    -0.007394     0.002420     0.004974
    4 C     -0.000012     2.840429     9.999800    -0.008420     0.000064    -0.008473     0.000002     0.008473    -0.000042    -0.000002     0.000099    -0.007366    -0.017796    -0.005933    -0.000717     0.006650
    5 C      3.794617     2.182101    10.005800     0.026540    -0.004891    -0.001062    -0.000032     0.005005    -0.004690    -0.000244    -0.000140    -0.037246     0.017445    -0.022114     0.005816     0.016298
    6 C      2.536643     0.023778     9.999420     0.034850     0.003121    -0.000486    -0.000023     0.003159     0.001705     0.000071    -0.000060    -0.013293    -0.009533    -0.005276    -0.003175     0.008451
    7 C      3.738883     0.771089    10.003140    -0.170443    -0.015611     0.010078     0.000057     0.018582    -0.026545    -0.000021    -0.000319     0.009834     0.034364    -0.032725     0.011453     0.021273
    8 C      2.496312     2.855280    10.003640     0.026391     0.010250    -0.007550     0.000151     0.012731    -0.000376    -0.000060    -0.000102    -0.019826     0.001155    -0.010113     0.000384     0.009729
    9 C      4.998535     3.022472    10.011740     0.023490    -0.067251     0.078290     0.000289     0.103209     0.050579    -0.000516     0.000056    -0.099249     0.202668    -0.104637     0.037079     0.067558
   10 C      8.546671     2.182101    10.005780     0.026506     0.004935    -0.001083    -0.000080     0.005054     0.004727     0.000204    -0.000128    -0.037272     0.017531    -0.022150     0.005844     0.016305
   11 C      8.602404     0.771114    10.003140    -0.170467     0.015613     0.010193     0.000026     0.018646     0.026561     0.000033    -0.000323     0.009762     0.034478    -0.032754     0.011491     0.021263
   12 C      7.342753     3.022485    10.011760     0.023515     0.067251     0.078286     0.000346     0.103206    -0.050578     0.000519     0.000068    -0.099283     0.202583    -0.104634     0.037104     0.067530
   13 C     11.084042     2.131466     9.999660     0.000274     0.002567     0.000931    -0.000125     0.002734     0.002152     0.000213    -0.000129     0.004976     0.002157    -0.003657     0.000717     0.002940
   14 C      9.804620     0.023791     9.999440     0.034869    -0.003192    -0.000477    -0.000037     0.003228    -0.001764    -0.000090    -0.000089    -0.013213    -0.009599    -0.005243    -0.003195     0.008438
   15 C     11.082932     0.703576     9.997800     0.003167     0.000265    -0.004489     0.000213     0.004502    -0.002168    -0.000195     0.000045    -0.008840     0.014790    -0.007391     0.002455     0.004936
   16 C      9.844988     2.855280    10.003620     0.026297    -0.010251    -0.007574     0.000124     0.012746     0.000378     0.000061    -0.000100    -0.019854     0.001135    -0.010124     0.000378     0.009746
   17 C      1.218481     6.410994    10.001720     0.005783     0.002467     0.005232    -0.000062     0.005785     0.006050    -0.000024     0.000085     0.005193     0.014437    -0.008990     0.004176     0.004814
   18 C      0.000000     4.262265    10.000900    -0.005003     0.000007    -0.000250    -0.000021     0.000251    -0.000009    -0.000015    -0.000244     0.014680     0.022793    -0.011142     0.003541     0.007601
   19 C      1.218432     4.988798    10.002600     0.005179     0.003033    -0.004985     0.000132     0.005837    -0.005886    -0.000244     0.000173     0.004444     0.014772    -0.008754     0.003753     0.005000
   20 C     -0.000012     7.137797     9.999280    -0.006257    -0.000057     0.001086     0.000092     0.001091     0.000004    -0.000022     0.000040     0.013755     0.026292    -0.011260     0.002495     0.008764
   21 C      3.648088     6.407749    10.012580     0.105325     0.057355     0.058561    -0.000194     0.081970     0.032614    -0.000118     0.000656     0.012262     0.029131    -0.038047     0.009712     0.028336
   22 C      2.446009     4.272769    10.006240    -0.025304    -0.014989    -0.012312     0.000141     0.019398    -0.008635    -0.000371    -0.000273     0.023732     0.048594    -0.022778     0.006569     0.016209
   23 C      3.648360     4.991133    10.012600     0.105278     0.056685    -0.058637     0.000313     0.081557    -0.031916    -0.000079     0.000032     0.012274     0.030902    -0.037651     0.010300     0.027351
   24 C      2.446095     7.126934    10.005620    -0.024081    -0.014635     0.012403    -0.000014     0.019184     0.008451    -0.000089     0.000137     0.023667     0.049663    -0.022819     0.006264     0.016555
   25 C      8.693199     6.407762    10.012580     0.105341    -0.057361     0.058577    -0.000193     0.081985    -0.032626     0.000130     0.000656     0.012273     0.029173    -0.038068     0.009726     0.028342
   26 C      8.692928     4.991158    10.012600     0.105268    -0.056708    -0.058579     0.000369     0.081532     0.031905     0.000074     0.000071     0.012355     0.030767    -0.037625     0.010255     0.027370
   27 C     11.122794     6.411007    10.001720     0.005790    -0.002543     0.005274    -0.000070     0.005855    -0.006089     0.000012     0.000086     0.005259     0.014467    -0.009044     0.004219     0.004825
   28 C      9.895267     4.272769    10.006220    -0.025193     0.014986    -0.012299     0.000104     0.019387     0.008678     0.000363    -0.000254     0.023814     0.048470    -0.022816     0.006648     0.016167
   29 C     11.122843     4.988798    10.002600     0.005091    -0.003026    -0.004962     0.000134     0.005813     0.005879     0.000213     0.000188     0.004407     0.014811    -0.008747     0.003744     0.005004
   30 C      9.895193     7.126947    10.005620    -0.024110     0.014588     0.012458     0.000024     0.019183    -0.008430     0.000088     0.000137     0.023630     0.049764    -0.022809     0.006220     0.016589
   31 C      1.258837    10.697410     9.996880     0.001522    -0.000739     0.004802     0.000172     0.004861    -0.002160    -0.000183    -0.000068    -0.009088     0.014660    -0.007477     0.002587     0.004890
   32 C     -0.000012     8.560134     9.998020    -0.011530     0.000021     0.007845    -0.000275     0.007850     0.000019    -0.000024    -0.000157    -0.008196    -0.015015    -0.005007    -0.001595     0.006603
   33 C      1.257430     9.269212     9.998340     0.004020    -0.002027    -0.001284    -0.000008     0.002399     0.002039    -0.000209     0.000064     0.006591     0.000115    -0.003898     0.000033     0.003865
   34 C     -0.000012    11.398767     9.995660    -0.014980    -0.000033    -0.004095    -0.000393     0.004114     0.000030    -0.000008     0.000029    -0.002134    -0.016458    -0.005486     0.001675     0.003811
   35 C      3.739587    10.628768    10.002400    -0.170629    -0.016648    -0.010066     0.000044     0.019454     0.026094    -0.000243     0.000128     0.009461     0.034641    -0.032294     0.011547     0.020747
   36 C      2.496448     8.544602    10.002760     0.023670     0.011046     0.007150     0.000172     0.013159     0.000598    -0.000092     0.000098    -0.017858     0.002331    -0.009338     0.000777     0.008561
   37 C      3.794950     9.217525    10.004880     0.026471    -0.005421     0.001254    -0.000016     0.005564     0.005074    -0.000087    -0.000010    -0.037521     0.017135    -0.022291     0.005712     0.016579
   38 C      2.537161    11.377002     9.998860     0.034132     0.002784    -0.000159     0.000079     0.002790    -0.001043    -0.000197     0.000031    -0.013412    -0.008727    -0.005348    -0.002894     0.008241
   39 C      4.998510     8.375551    10.011100     0.023770    -0.067852    -0.077281     0.000237     0.102841    -0.051049    -0.000334     0.000036    -0.097583     0.202543    -0.104373     0.036858     0.067516
   40 C      8.601689    10.628768    10.002420    -0.170697     0.016655    -0.010074     0.000034     0.019465    -0.026138     0.000217     0.000109     0.009435     0.034670    -0.032340     0.011557     0.020783
   41 C      7.342753     8.375563    10.011080     0.023821     0.067919    -0.077385     0.000141     0.102963     0.051017     0.000327     0.000055    -0.097675     0.202443    -0.104365     0.036883     0.067483
   42 C      8.546313     9.217525    10.004900     0.026450     0.005338     0.001319    -0.000014     0.005499    -0.005037     0.000080    -0.000018    -0.037535     0.017254    -0.022308     0.005752     0.016556
   43 C     11.082426    10.697410     9.996900     0.001506     0.000660     0.004776     0.000209     0.004826     0.002123     0.000172    -0.000064    -0.009129     0.014723    -0.007491     0.002580     0.004911
   44 C      9.844828     8.544602    10.002760     0.023658    -0.011134     0.007171     0.000157     0.013244    -0.000603     0.000111     0.000101    -0.017842     0.002372    -0.009338     0.000791     0.008547
   45 C     11.083845     9.269212     9.998360     0.004071     0.001994    -0.001306     0.000042     0.002384    -0.002024     0.000212     0.000084     0.006523    -0.000006    -0.003842    -0.000005     0.003848
   46 C      9.804101    11.376989     9.998880     0.034173    -0.002897    -0.000157     0.000053     0.002902     0.001037     0.000193     0.000024    -0.013394    -0.008610    -0.005356    -0.002856     0.008212
   47 H      4.691237     0.242554    10.005000     0.104375     0.040441    -0.018800     0.000012     0.044597    -0.005950     0.000102     0.000003     0.013186    -0.038176    -0.012726    -0.002518     0.015244
   48 H      7.650051     0.242541    10.005000     0.104391    -0.040440    -0.018802     0.000015     0.044597     0.005949    -0.000104     0.000005     0.013179    -0.038192    -0.012731    -0.002512     0.015243
   49 H      4.692347    11.156815    10.005540     0.104943     0.040325     0.018602     0.000282     0.044410     0.005962     0.000077     0.000045     0.012858    -0.038691    -0.012897    -0.002320     0.015217
   50 H      7.648928    11.156815    10.005560     0.104974    -0.040293     0.018591     0.000255     0.044376    -0.005972    -0.000077     0.000051     0.012870    -0.038705    -0.012902    -0.002328     0.015230
   51 Fe     6.170650     5.699031    10.019880     0.467978     0.000001     0.000080     0.000176     0.000193    -0.000010     0.000018    -0.000399     0.022010     1.041344    -0.184563    -0.162552     0.347115
   52 N      4.875542     4.336832    10.016060    -0.235969    -0.083081    -0.039884    -0.000740     0.092161    -0.011631    -0.000637    -0.000520     0.058556     0.148072    -0.056186     0.006818     0.049368
   53 N      4.875418     7.061550    10.015680    -0.235895    -0.082533     0.040160    -0.000435     0.091786     0.011497    -0.000570     0.000349     0.057771     0.148567    -0.055853     0.006323     0.049530
   54 N      7.465746     4.336858    10.016060    -0.235978     0.083010    -0.039840    -0.000705     0.092078     0.011660     0.000648    -0.000558     0.058563     0.148042    -0.056196     0.006838     0.049358
   55 N      7.465869     7.061563    10.015680    -0.235961     0.082537     0.040060    -0.000355     0.091746    -0.011476     0.000581     0.000345     0.057850     0.148689    -0.055902     0.006331     0.049571
 
The sperically averaged electron density of each atom fit to a function of the form exp(a - br) for r >=rmin_cloud_penetration
atom number,atomic symbol, x, y, z, a, b, Rsquared where a and b are in atomic units and Rsquared is the squared correlation coefficient
    1 C      1.257258     2.131440     9.999680    -0.064011     1.976701     0.999644
    2 C      0.000000     0.002206     9.996300    -0.184684     1.945398     0.999599
    3 C      1.258368     0.703563     9.997800    -0.004763     1.984452     0.999760
    4 C     -0.000012     2.840429     9.999800    -0.062214     1.975499     0.999562
    5 C      3.794617     2.182101    10.005800    -0.140995     1.953983     0.998955
    6 C      2.536643     0.023778     9.999420    -0.207936     1.953235     0.998797
    7 C      3.738883     0.771089    10.003140    -0.574222     1.815602     0.999732
    8 C      2.496312     2.855280    10.003640    -0.140667     1.962513     0.999831
    9 C      4.998535     3.022472    10.011740    -0.275557     1.932980     0.999062
   10 C      8.546671     2.182101    10.005780    -0.140801     1.954007     0.998956
   11 C      8.602404     0.771114    10.003140    -0.574166     1.815614     0.999732
   12 C      7.342753     3.022485    10.011760    -0.275503     1.932993     0.999063
   13 C     11.084042     2.131466     9.999660    -0.064025     1.976696     0.999644
   14 C      9.804620     0.023791     9.999440    -0.208235     1.953198     0.998796
   15 C     11.082932     0.703576     9.997800    -0.004726     1.984453     0.999760
   16 C      9.844988     2.855280    10.003620    -0.140616     1.962513     0.999831
   17 C      1.218481     6.410994    10.001720     0.014268     1.999587     0.999437
   18 C      0.000000     4.262265    10.000900     0.065204     2.005480     0.999845
   19 C      1.218432     4.988798    10.002600     0.016064     1.999231     0.999431
   20 C     -0.000012     7.137797     9.999280     0.021206     1.995044     0.999808
   21 C      3.648088     6.407749    10.012580    -0.620611     1.893027     0.998967
   22 C      2.446009     4.272769    10.006240    -0.338400     1.930161     0.999274
   23 C      3.648360     4.991133    10.012600    -0.620804     1.892927     0.998962
   24 C      2.446095     7.126934    10.005620    -0.342683     1.929043     0.999265
   25 C      8.693199     6.407762    10.012580    -0.620636     1.893026     0.998967
   26 C      8.692928     4.991158    10.012600    -0.620739     1.892937     0.998963
   27 C     11.122794     6.411007    10.001720     0.014236     1.999586     0.999437
   28 C      9.895267     4.272769    10.006220    -0.337742     1.930360     0.999275
   29 C     11.122843     4.988798    10.002600     0.015642     1.999098     0.999430
   30 C      9.895193     7.126947    10.005620    -0.342869     1.928990     0.999265
   31 C      1.258837    10.697410     9.996880    -0.003801     1.984708     0.999755
   32 C     -0.000012     8.560134     9.998020    -0.076879     1.971199     0.999551
   33 C      1.257430     9.269212     9.998340    -0.064841     1.976894     0.999646
   34 C     -0.000012    11.398767     9.995660    -0.140593     1.953948     0.999686
   35 C      3.739587    10.628768    10.002400    -0.576622     1.815145     0.999734
   36 C      2.496448     8.544602    10.002760    -0.143021     1.962038     0.999826
   37 C      3.794950     9.217525    10.004880    -0.134924     1.954827     0.998969
   38 C      2.537161    11.377002     9.998860    -0.195689     1.955056     0.998805
   39 C      4.998510     8.375551    10.011100    -0.275092     1.932972     0.999062
   40 C      8.601689    10.628768    10.002420    -0.576506     1.815171     0.999734
   41 C      7.342753     8.375563    10.011080    -0.275083     1.932976     0.999062
   42 C      8.546313     9.217525    10.004900    -0.134854     1.954838     0.998969
   43 C     11.082426    10.697410     9.996900    -0.003642     1.984729     0.999755
   44 C      9.844828     8.544602    10.002760    -0.142529     1.962141     0.999826
   45 C     11.083845     9.269212     9.998360    -0.064929     1.976884     0.999646
   46 C      9.804101    11.376989     9.998880    -0.195518     1.955093     0.998805
   47 H      4.691237     0.242554    10.005000    -2.526582     1.818650     0.999018
   48 H      7.650051     0.242541    10.005000    -2.526339     1.818697     0.999019
   49 H      4.692347    11.156815    10.005540    -2.519216     1.820768     0.998999
   50 H      7.648928    11.156815    10.005560    -2.519353     1.820737     0.998999
   51 Fe     6.170650     5.699031    10.019880    -0.222004     1.765347     0.999856
   52 N      4.875542     4.336832    10.016060    -0.611476     1.857822     0.999268
   53 N      4.875418     7.061550    10.015680    -0.614100     1.857321     0.999273
   54 N      7.465746     4.336858    10.016060    -0.611598     1.857785     0.999268
   55 N      7.465869     7.061563    10.015680    -0.614124     1.857303     0.999273
 
 2024/03/12  15:13:58
